                                  MODFLOW-2005     
      U.S. GEOLOGICAL SURVEY MODULAR FINITE-DIFFERENCE GROUND-WATER FLOW MODEL
                            VERSION 1.11.00 8/8/2013

 LIST FILE: test_no_5.2.list
                         UNIT    2

 OPENING test_no_5.2.dis
 FILE TYPE:DIS   UNIT   11   STATUS:OLD    
 FORMAT:FORMATTED              ACCESS:SEQUENTIAL          

 OPENING test_no_5.2.bas
 FILE TYPE:BAS6   UNIT   13   STATUS:OLD    
 FORMAT:FORMATTED              ACCESS:SEQUENTIAL          

 OPENING test_no_5.2.lpf
 FILE TYPE:LPF   UNIT   15   STATUS:OLD    
 FORMAT:FORMATTED              ACCESS:SEQUENTIAL          

 OPENING test_no_5.2.rch
 FILE TYPE:RCH   UNIT   19   STATUS:OLD    
 FORMAT:FORMATTED              ACCESS:SEQUENTIAL          

 OPENING test_no_5.2.hob
 FILE TYPE:HOB   UNIT   39   STATUS:OLD    
 FORMAT:FORMATTED              ACCESS:SEQUENTIAL          

 OPENING test_no_5.2.pcg
 FILE TYPE:PCG   UNIT   27   STATUS:OLD    
 FORMAT:FORMATTED              ACCESS:SEQUENTIAL          

 OPENING test_no_5.2.oc
 FILE TYPE:OC   UNIT   14   STATUS:OLD    
 FORMAT:FORMATTED              ACCESS:SEQUENTIAL          

 OPENING test_no_5.2.wel
 FILE TYPE:WEL   UNIT   20   STATUS:OLD    
 FORMAT:FORMATTED              ACCESS:SEQUENTIAL          

 OPENING test_no_5.2.cbc
 FILE TYPE:DATA(BINARY)   UNIT   40   STATUS:REPLACE
 FORMAT:BINARY                 ACCESS:SEQUENTIAL          

 OPENING test_no_5.2.hob.out
 FILE TYPE:DATA   UNIT    7   STATUS:UNKNOWN
 FORMAT:FORMATTED              ACCESS:SEQUENTIAL          

 OPENING test_no_5.2.hds
 FILE TYPE:DATA(BINARY)   UNIT   51   STATUS:REPLACE
 FORMAT:BINARY                 ACCESS:SEQUENTIAL          

 BAS -- BASIC PACKAGE, VERSION 7, 5/2/2005 INPUT READ FROM UNIT   13
 
 MODFLOW was compiled using mixed precision
 Precision of REAL variables:           6
 Precision of DOUBLE PRECISION variables:          15

 DISCRETIZATION INPUT DATA READ FROM UNIT   11
 # DIS package for  MODFLOW-2005, generated by Flopy.
    1 LAYERS       100 ROWS       100 COLUMNS
    1 STRESS PERIOD(S) IN SIMULATION
 MODEL TIME UNIT IS DAYS
 MODEL LENGTH UNIT IS METERS
  Confining bed flag for each layer:
   0



                               DELR
 READING ON UNIT   11 WITH FORMAT: (100E15.6)          



                               DELC
 READING ON UNIT   11 WITH FORMAT: (100E15.6)          



           TOP ELEVATION OF LAYER 1
 READING ON UNIT   11 WITH FORMAT: (FREE)              



             MODEL LAYER BOTTOM EL. FOR LAYER   1
 READING ON UNIT   11 WITH FORMAT: (FREE)              


 STRESS PERIOD     LENGTH       TIME STEPS     MULTIPLIER FOR DELT    SS FLAG
 ----------------------------------------------------------------------------
        1        1.0000000          1                    1.000         SS

 STEADY-STATE SIMULATION



 
 # BAS6 package for  MODFLOW-2005, generated by Flopy.                           
 THE FREE FORMAT OPTION HAS BEEN SELECTED



                     BOUNDARY ARRAY FOR LAYER   1
 READING ON UNIT   13 WITH FORMAT: (FREE)              

 AQUIFER HEAD WILL BE SET TO  -999.00     AT ALL NO-FLOW NODES (IBOUND=0).



                       INITIAL HEAD FOR LAYER   1
 READING ON UNIT   13 WITH FORMAT: (FREE)              
 # OC package for  MODFLOW-2005, generated by Flopy.

 OUTPUT CONTROL IS SPECIFIED ONLY AT TIME STEPS FOR WHICH OUTPUT IS DESIRED
 COMPACT CELL-BY-CELL BUDGET FILES WILL BE WRITTEN
 AUXILIARY DATA WILL BE SAVED IN CELL-BY-CELL BUDGET FILES
 HEAD PRINT FORMAT CODE IS   0    DRAWDOWN PRINT FORMAT CODE IS   0
 HEADS WILL BE SAVED ON UNIT   51    DRAWDOWNS WILL BE SAVED ON UNIT    0

 LPF -- LAYER-PROPERTY FLOW PACKAGE, VERSION 7, 5/2/2005
         INPUT READ FROM UNIT   15
 # LPF package for  MODFLOW-2005, generated by Flopy.
 CELL-BY-CELL FLOWS WILL BE SAVED ON UNIT   40
 HEAD AT CELLS THAT CONVERT TO DRY=  -888.00    
 No named parameters

   LAYER FLAGS:
 LAYER       LAYTYP        LAYAVG         CHANI        LAYVKA        LAYWET
 ---------------------------------------------------------------------------
    1             1             0    -1.000E+00             1             0

   INTERPRETATION OF LAYER FLAGS:
                        INTERBLOCK     HORIZONTAL    DATA IN
         LAYER TYPE   TRANSMISSIVITY   ANISOTROPY   ARRAY VKA   WETTABILITY
 LAYER      (LAYTYP)      (LAYAVG)       (CHANI)      (LAYVKA)      (LAYWET)
 ---------------------------------------------------------------------------
    1   CONVERTIBLE      HARMONIC      VARIABLE    ANISOTROPY  NON-WETTABLE

 WETTING CAPABILITY IS NOT ACTIVE IN ANY LAYER



              HYD. COND. ALONG ROWS FOR LAYER   1
 READING ON UNIT   15 WITH FORMAT: (FREE)              

   HORIZ. ANI. (COL./ROW) =  1.000000     FOR LAYER   1

  HORIZ. TO VERTICAL ANI. =   3.00000     FOR LAYER   1

 WEL -- WELL PACKAGE, VERSION 7, 5/2/2005 INPUT READ FROM UNIT   20
 # WEL package for  MODFLOW-2005, generated by Flopy.
 No named parameters
 MAXIMUM OF     62 ACTIVE WELLS AT ONE TIME
 CELL-BY-CELL FLOWS WILL BE SAVED ON UNIT   40
 AUXILIARY WELL VARIABLE: IFACE           
 AUXILIARY WELL VARIABLE: QFACT           
 AUXILIARY WELL VARIABLE: CELLGRP         


     0 Well parameters

 RCH -- RECHARGE PACKAGE, VERSION 7, 5/2/2005 INPUT READ FROM UNIT   19
 # RCH package for  MODFLOW-2005, generated by Flopy.
 No named parameters
 OPTION 3 -- RECHARGE TO HIGHEST ACTIVE NODE IN EACH VERTICAL COLUMN
 CELL-BY-CELL FLOWS WILL BE SAVED ON UNIT   40


     0 Recharge parameters

 PCG -- CONJUGATE-GRADIENT SOLUTION PACKAGE, VERSION 7, 5/2/2005
 # PCG package for  MODFLOW-2005, generated by Flopy.
 MAXIMUM OF     50 CALLS OF SOLUTION ROUTINE
 MAXIMUM OF     30 INTERNAL ITERATIONS PER CALL TO SOLUTION ROUTINE
 MATRIX PRECONDITIONING TYPE :    1



                                    SOLUTION BY THE CONJUGATE-GRADIENT METHOD
                                   -------------------------------------------
                    MAXIMUM NUMBER OF CALLS TO PCG ROUTINE =       50
                        MAXIMUM ITERATIONS PER CALL TO PCG =       30
                               MATRIX PRECONDITIONING TYPE =        1
        RELAXATION FACTOR (ONLY USED WITH PRECOND. TYPE 1) =    0.10000E+01
 PARAMETER OF POLYNOMIAL PRECOND. = 2 (2) OR IS CALCULATED :        0
                         HEAD CHANGE CRITERION FOR CLOSURE =    0.10000E-04
                     RESIDUAL CHANGE CRITERION FOR CLOSURE =    0.10000E-04
            PCG HEAD AND RESIDUAL CHANGE PRINTOUT INTERVAL =      999
     PRINTING FROM SOLVER IS LIMITED(1) OR SUPPRESSED (>1) =        3
                            STEADY-STATE DAMPING PARAMETER =    0.10000E+01
                               TRANSIENT DAMPING PARAMETER =    0.10000E+01

 OBS2BAS7 -- HEAD OBSERVATIONS, VERSION 2.0, 2/28/2006
 INPUT READ FROM UNIT  39
 # HOB package for  MODFLOW-2005, generated by Flopy.

 NUMBER OF HEADS....................................:   17
   NUMBER OF MULTILAYER HEADS.......................:    0
   MAXIMUM NUMBER OF LAYERS FOR MULTILAYER HEADS....:    0
 HEAD OBSERVATIONS WILL BE SAVED ON UNIT............:    7
 SIMULATED EQUIVALENT HEAD AT DRY CELLS WILL BE:   -777.000    

 OBSERVED HEAD DATA -- TIME OFFSETS ARE MULTIPLIED BY:  1.00000    

                    REFER.
       OBSERVATION  STRESS    TIME
  OBS#    NAME      PERIOD   OFFSET    OBSERVATION
     1 hed1             1    0.000       6.546    
 Observation within a steady-state time step has been moved to the end of the time step.
     2 hed2             1    0.000       6.721    
 Observation within a steady-state time step has been moved to the end of the time step.
     3 hed3             1    0.000       5.312    
 Observation within a steady-state time step has been moved to the end of the time step.
     4 hed4             1    0.000       1.627    
 Observation within a steady-state time step has been moved to the end of the time step.
     5 hed5             1    0.000       1.552    
 Observation within a steady-state time step has been moved to the end of the time step.
     6 hed6             1    0.000       1.173    
 Observation within a steady-state time step has been moved to the end of the time step.
     7 hed7             1    0.000       4.385    
 Observation within a steady-state time step has been moved to the end of the time step.
     8 hed8             1    0.000       1.296    
 Observation within a steady-state time step has been moved to the end of the time step.
     9 hed9             1    0.000       3.070    
 Observation within a steady-state time step has been moved to the end of the time step.
    10 hed10            1    0.000       1.225    
 Observation within a steady-state time step has been moved to the end of the time step.
    11 hed11            1    0.000       6.368    
 Observation within a steady-state time step has been moved to the end of the time step.
    12 hed12            1    0.000       6.444    
 Observation within a steady-state time step has been moved to the end of the time step.
    13 hed13            1    0.000       6.669    
 Observation within a steady-state time step has been moved to the end of the time step.
    14 hed14            1    0.000       3.382    
 Observation within a steady-state time step has been moved to the end of the time step.
    15 hed15            1    0.000       1.118    
 Observation within a steady-state time step has been moved to the end of the time step.
    16 hed16            1    0.000       2.608    
 Observation within a steady-state time step has been moved to the end of the time step.
    17 hed17            1    0.000       1.161    
 Observation within a steady-state time step has been moved to the end of the time step.

                                                     HEAD CHANGE
                                                      REFERENCE
        OBSERVATION                   ROW     COL    OBSERVATION
  OBS#     NAME       LAY  ROW  COL  OFFSET  OFFSET   (IF > 0)
     1  hed1            1   60   40   0.392  -0.213        0
     2  hed2            1   56   30   0.401  -0.274        0
     3  hed3            1   71   27   0.007  -0.007        0
     4  hed4            1   26   73  -0.031  -0.435        0
     5  hed5            1   23   61  -0.452   0.363        0
     6  hed6            1   31   63  -0.195   0.271        0
     7  hed7            1   79   31   0.028  -0.174        0
     8  hed8            1   56   12  -0.188   0.123        0
     9  hed9            1   39   50  -0.056   0.099        0
    10  hed10           1   27   78   0.148   0.105        0
    11  hed11           1   68   38   0.197   0.466        0
    12  hed12           1   73   35   0.377  -0.427        0
    13  hed13           1   71   36   0.297   0.050        0
    14  hed14           1   81   36   0.175  -0.147        0
    15  hed15           1   27   87   0.030   0.153        0
    16  hed16           1   45   54   0.196  -0.084        0
    17  hed17           1   21   93   0.368  -0.431        0
1
                            STRESS PERIOD NO.    1, LENGTH =  1.0000000    
                            -----------------------------------------------

                              NUMBER OF TIME STEPS =     1

                               MULTIPLIER FOR DELT =     1.000

                            INITIAL TIME STEP SIZE =  1.0000000    

 WELL NO.  LAYER   ROW   COL   STRESS RATE         IFACE           QFACT           CELLGRP         
 --------------------------------------------------------------------------------------------------
      1      1     56     28      -4000.           0.000          1.0000          1.0000    
      2      1     55     29      -4000.           0.000          1.0000           2.000    
      3      1     66     36      -4000.           0.000          1.0000           3.000    
      4      1     66     40      -4000.           0.000          1.0000           4.000    
      5      1     65     41      -4000.           0.000          1.0000           5.000    
      6      1     65     41      -4000.           0.000          1.0000           6.000    
      7      1     65     41      -4000.           0.000          1.0000           7.000    
      8      1     65     41      -4000.           0.000          1.0000           8.000    
      9      1     64     41      -4000.           0.000          1.0000           9.000    
     10      1     63     41      -4000.           0.000          1.0000          10.000    
     11      1     62     41      -4000.           0.000          1.0000           11.00    
     12      1     61     39      -4000.           0.000          1.0000           12.00    
     13      1     61     39      -4000.           0.000          1.0000           13.00    
     14      1     79     36      -4000.           0.000          1.0000           14.00    
     15      1     79     36      -4000.           0.000          1.0000           15.00    
     16      1     79     36      -4000.           0.000          1.0000           16.00    
     17      1     78     38      -4000.           0.000          1.0000           17.00    
     18      1     70     28      -4000.           0.000          1.0000           18.00    
     19      1     71     29      -4000.           0.000          1.0000           19.00    
     20      1     72     29      -4000.           0.000          1.0000           20.00    
     21      1     74     28      -4000.           0.000          1.0000           21.00    
     22      1     74     27      -4000.           0.000          1.0000           22.00    
     23      1     76     30      -4000.           0.000          1.0000           23.00    
     24      1     76     30      -4000.           0.000          1.0000           24.00    
     25      1     77     30      -4000.           0.000          1.0000           25.00    
     26      1     78     30      -4000.           0.000          1.0000           26.00    
     27      1     61     39      -4000.           0.000          1.0000           27.00    
     28      1     33     49      -4000.           0.000          1.0000           28.00    
     29      1     35     50      -4000.           0.000          1.0000           29.00    
     30      1     36     50      -4000.           0.000          1.0000           30.00    
     31      1     37     49      -4000.           0.000          1.0000           31.00    
     32      1     37     53      -4000.           0.000          1.0000           32.00    
     33      1     30     64      -4000.           0.000          1.0000           33.00    
     34      1     29     64      -4000.           0.000          1.0000           34.00    
     35      1     29     78      -4000.           0.000          1.0000           35.00    
     36      1     19     94      -4000.           0.000          1.0000           36.00    
     37      1     20     93      -4000.           0.000          1.0000           37.00    
     38      1     27     88      -4000.           0.000          1.0000           38.00    
     39      1     44     43      -4000.           0.000          1.0000           39.00    
     40      1     45     43      -4000.           0.000          1.0000           40.00    
     41      1     66     40      -4000.           0.000          1.0000           41.00    
     42      1     30     64      -4000.           0.000          1.0000           42.00    
     43      1     37     53      -4000.           0.000          1.0000           43.00    
     44      1     76     36      -4000.           0.000          1.0000           44.00    
     45      1     21     61      -4000.           0.000          1.0000           45.00    
     46      1     71     38      -4000.           0.000          1.0000           46.00    
     47      1     29     67      -4000.           0.000          1.0000           47.00    
     48      1     29     67      -4000.           0.000          1.0000           48.00    
     49      1     72     37      -4000.           0.000          1.0000           49.00    
     50      1     56     11      -4000.           0.000          1.0000           50.00    
     51      1     56     11      -4000.           0.000          1.0000           51.00    
     52      1     28     88      -4000.           0.000          1.0000           52.00    
     53      1     72     35      -4000.           0.000          1.0000           53.00    
     54      1     21     62      -4000.           0.000          1.0000           54.00    
     55      1     72     34      -4000.           0.000          1.0000           55.00    
     56      1     19     94      -4000.           0.000          1.0000           56.00    
     57      1     26     94      -4000.           0.000          1.0000           57.00    
     58      1     26     94      -4000.           0.000          1.0000           58.00    
     59      1     24     72      -4000.           0.000          1.0000           59.00    
     60      1     25     72      -4000.           0.000          1.0000           60.00    
     61      1     44     55      -4000.           0.000          1.0000           61.00    
     62      1     39     48      -4000.           0.000          1.0000           62.00    

     62 WELLS



                           RECHARGE
 READING ON UNIT   19 WITH FORMAT: (FREE)              
 
 SOLVING FOR HEAD 

 OUTPUT CONTROL FOR STRESS PERIOD    1   TIME STEP    1
    PRINT HEAD FOR ALL LAYERS
    PRINT BUDGET
    SAVE HEAD FOR ALL LAYERS
    SAVE BUDGET
 UBDSV2 SAVING "   CONSTANT HEAD" ON UNIT  40 AT TIME STEP  1, STRESS PERIOD   1
 UBDSV1 SAVING "FLOW RIGHT FACE " ON UNIT  40 AT TIME STEP  1, STRESS PERIOD   1
 UBDSV1 SAVING "FLOW FRONT FACE " ON UNIT  40 AT TIME STEP  1, STRESS PERIOD   1
 UBDSV4 SAVING "           WELLS" ON UNIT  40 AT TIME STEP  1, STRESS PERIOD   1
 UBDSV3 SAVING "        RECHARGE" ON UNIT  40 AT TIME STEP  1, STRESS PERIOD   1
1
              HEAD IN LAYER   1 AT END OF TIME STEP   1 IN STRESS PERIOD    1
  ---------------------------------------------------------------------------

            1           2           3           4           5           6           7           8           9          10
           11          12          13          14          15          16          17          18          19          20
           21          22          23          24          25          26          27          28          29          30
           31          32          33          34          35          36          37          38          39          40
           41          42          43          44          45          46          47          48          49          50
           51          52          53          54          55          56          57          58          59          60
           61          62          63          64          65          66          67          68          69          70
           71          72          73          74          75          76          77          78          79          80
           81          82          83          84          85          86          87          88          89          90
           91          92          93          94          95          96          97          98          99         100
 ........................................................................................................................
   1   -999.0      -999.0      -999.0      -999.0      -999.0      -999.0      -999.0      -999.0      -999.0      -999.0    
       -999.0      -999.0      -999.0      -999.0      -999.0      -999.0      -999.0      -999.0      -999.0      -999.0    
       -999.0      -999.0      -999.0      -999.0      -999.0      -999.0      -999.0      -999.0      -999.0      -999.0    
       -999.0      -999.0      -999.0      -999.0      -999.0      -999.0      -999.0      -999.0      -999.0      -999.0    
       -999.0      -999.0      -999.0      -999.0      -999.0      -999.0      -999.0      -999.0      -999.0      -999.0    
       -999.0      -999.0      -999.0      -999.0      -999.0      -999.0      -999.0      -999.0      -999.0      -999.0    
       -999.0      -999.0      -999.0      -999.0      -999.0      -999.0      -999.0      -999.0      -999.0      -999.0    
       -999.0      -999.0      -999.0      -999.0      -999.0      -999.0      -999.0      -999.0      -999.0      -999.0    
       -999.0      -999.0      -999.0      -999.0      -999.0      -999.0      -999.0      -999.0      -999.0      -999.0    
       -999.0      -999.0      -999.0      -999.0      -999.0      -999.0      -999.0      -999.0      -999.0      -999.0    
   2   -999.0      -999.0      -999.0      -999.0      -999.0      -999.0      -999.0      -999.0      -999.0      -999.0    
       -999.0      -999.0      -999.0      -999.0      -999.0      -999.0      -999.0      -999.0      -999.0      -999.0    
       -999.0      -999.0      -999.0      -999.0      -999.0      -999.0      -999.0      -999.0      -999.0      -999.0    
       -999.0      -999.0      -999.0      -999.0      -999.0      -999.0      -999.0      -999.0      -999.0      -999.0    
       -999.0      -999.0      -999.0      -999.0      -999.0      -999.0      -999.0      -999.0      -999.0      -999.0    
       -999.0      -999.0      -999.0      -999.0      -999.0      -999.0      -999.0      -999.0      -999.0      -999.0    
       -999.0      -999.0      -999.0      -999.0      -999.0      -999.0      -999.0      -999.0      -999.0      -999.0    
       -999.0      -999.0      -999.0      -999.0      -999.0      -999.0      -999.0      -999.0      -999.0      -999.0    
       -999.0      -999.0      -999.0      -999.0      -999.0      -999.0      -999.0      -999.0      -999.0      -999.0    
       -999.0      -999.0      -999.0      -999.0      -999.0      -999.0      -999.0      -999.0      -999.0      -999.0    
   3   -999.0      -999.0      -999.0      -999.0      -999.0      -999.0      -999.0      -999.0      -999.0      -999.0    
       -999.0      -999.0      -999.0      -999.0      -999.0      -999.0      -999.0      -999.0      -999.0      -999.0    
       -999.0      -999.0      -999.0      -999.0      -999.0      -999.0      -999.0      -999.0      -999.0      -999.0    
       -999.0      -999.0      -999.0      -999.0      -999.0      -999.0      -999.0      -999.0      -999.0      -999.0    
       -999.0      -999.0      -999.0      -999.0      -999.0      -999.0      -999.0      -999.0      -999.0      -999.0    
       -999.0      -999.0      -999.0      -999.0      -999.0      -999.0      -999.0      -999.0      -999.0      -999.0    
       -999.0      -999.0      -999.0      -999.0      -999.0      -999.0      -999.0      -999.0      -999.0      -999.0    
       -999.0      -999.0      -999.0      -999.0      -999.0      -999.0      -999.0      -999.0      -999.0      -999.0    
       -999.0      -999.0      -999.0      -999.0      -999.0      -999.0      -999.0      -999.0      -999.0      -999.0    
       -999.0      -999.0      -999.0      -999.0      -999.0      -999.0      -999.0      -999.0      -999.0      -999.0    
   4   -999.0      -999.0      -999.0      -999.0      -999.0      -999.0      -999.0      -999.0      -999.0      -999.0    
       -999.0      -999.0      -999.0      -999.0      -999.0      -999.0      -999.0      -999.0      -999.0      -999.0    
       -999.0      -999.0      -999.0      -999.0      -999.0      -999.0      -999.0      -999.0      -999.0      -999.0    
       -999.0      -999.0      -999.0      -999.0      -999.0      -999.0      -999.0      -999.0      -999.0      -999.0    
       -999.0      -999.0      -999.0      -999.0      -999.0      -999.0      -999.0      -999.0      -999.0      -999.0    
       -999.0      -999.0      -999.0      -999.0      -999.0      -999.0      -999.0      -999.0      -999.0      -999.0    
       -999.0      -999.0      -999.0      -999.0      -999.0      -999.0      -999.0      -999.0      -999.0      -999.0    
       -999.0      -999.0      -999.0      -999.0      -999.0      -999.0      -999.0      -999.0      -999.0      -999.0    
       -999.0      -999.0      -999.0      -999.0      -999.0      -999.0      -999.0      -999.0      -999.0      -999.0    
       -999.0      -999.0      -999.0      -999.0      -999.0      -999.0      -999.0      -999.0      -999.0      -999.0    
   5   -999.0      -999.0      -999.0      -999.0      -999.0      -999.0      -999.0      -999.0      -999.0      -999.0    
       -999.0      -999.0      -999.0      -999.0      -999.0      -999.0      -999.0      -999.0      -999.0      -999.0    
       -999.0      -999.0      -999.0      -999.0      -999.0      -999.0      -999.0      -999.0      -999.0      -999.0    
       -999.0      -999.0      -999.0      -999.0      -999.0      -999.0      -999.0      -999.0      -999.0      -999.0    
       -999.0      -999.0      -999.0      -999.0      -999.0      -999.0      -999.0      -999.0      -999.0      -999.0    
       -999.0      -999.0      -999.0      -999.0      -999.0      -999.0      -999.0      -999.0      -999.0      -999.0    
       -999.0      -999.0      -999.0      -999.0      -999.0      -999.0      -999.0      -999.0      -999.0      -999.0    
       -999.0      -999.0      -999.0      -999.0      -999.0      -999.0      -999.0      -999.0      -999.0      -999.0    
       -999.0      -999.0      -999.0      -999.0      -999.0      -999.0      -999.0      -999.0      -999.0      -999.0    
       -999.0      -999.0      -999.0      -999.0      -999.0      -999.0      -999.0      -999.0      -999.0      -999.0    
   6   -999.0      -999.0      -999.0      -999.0      -999.0      -999.0      -999.0      -999.0      -999.0      -999.0    
       -999.0      -999.0      -999.0      -999.0      -999.0      -999.0      -999.0      -999.0      -999.0      -999.0    
       -999.0      -999.0      -999.0      -999.0      -999.0      -999.0      -999.0      -999.0      -999.0      -999.0    
       -999.0      -999.0      -999.0      -999.0      -999.0      -999.0      -999.0      -999.0      -999.0      -999.0    
       -999.0      -999.0      -999.0      -999.0      -999.0      -999.0      -999.0      -999.0      -999.0      -999.0    
       -999.0      -999.0      -999.0      -999.0      -999.0      -999.0      -999.0      -999.0      -999.0      -999.0    
       -999.0      -999.0      -999.0      -999.0      -999.0      -999.0      -999.0      -999.0      -999.0      -999.0    
       -999.0      -999.0      -999.0      -999.0      -999.0      -999.0      -999.0      -999.0      -999.0      -999.0    
       -999.0      -999.0      -999.0      -999.0      -999.0      -999.0      -999.0      -999.0      -999.0      -999.0    
       -999.0      -999.0      -999.0      -999.0      -999.0      -999.0      -999.0      -999.0      -999.0      -999.0    
   7   -999.0      -999.0      -999.0      -999.0      -999.0      -999.0      -999.0      -999.0      -999.0      -999.0    
       -999.0      -999.0      -999.0      -999.0      -999.0      -999.0      -999.0      -999.0      -999.0      -999.0    
       -999.0      -999.0      -999.0      -999.0      -999.0      -999.0      -999.0      -999.0      -999.0      -999.0    
       -999.0      -999.0      -999.0      -999.0      -999.0      -999.0      -999.0      -999.0      -999.0      -999.0    
       -999.0      -999.0      -999.0      -999.0      -999.0      -999.0      -999.0      -999.0      -999.0      -999.0    
       -999.0      -999.0      -999.0      -999.0      -999.0      -999.0      -999.0      -999.0      -999.0      -999.0    
       -999.0      -999.0      -999.0      -999.0      -999.0      -999.0      -999.0      -999.0      -999.0      -999.0    
       -999.0      -999.0      -999.0      -999.0      -999.0      -999.0      -999.0      -999.0      -999.0      -999.0    
       -999.0      -999.0      -999.0      -999.0      -999.0      -999.0      -999.0      -999.0      -999.0      -999.0    
       -999.0      -999.0      -999.0      -999.0      -999.0      -999.0      -999.0      -999.0      -999.0      -999.0    
   8   -999.0      -999.0      -999.0      -999.0      -999.0      -999.0      -999.0      -999.0      -999.0      -999.0    
       -999.0      -999.0      -999.0      -999.0      -999.0      -999.0      -999.0      -999.0      -999.0      -999.0    
       -999.0      -999.0      -999.0      -999.0      -999.0      -999.0      -999.0      -999.0      -999.0      -999.0    
       -999.0      -999.0      -999.0      -999.0      -999.0      -999.0      -999.0      -999.0      -999.0      -999.0    
       -999.0      -999.0      -999.0      -999.0      -999.0      -999.0      -999.0      -999.0      -999.0      -999.0    
       -999.0      -999.0      -999.0      -999.0      -999.0      -999.0      -999.0      -999.0      -999.0      -999.0    
       -999.0      -999.0      -999.0      -999.0      -999.0      -999.0      -999.0      -999.0      -999.0      -999.0    
       -999.0      -999.0      -999.0      -999.0      -999.0      -999.0      -999.0      -999.0      -999.0      -999.0    
       -999.0      -999.0      -999.0      -999.0      -999.0      -999.0      -999.0      -999.0      -999.0      -999.0    
       -999.0      -999.0      -999.0      -999.0      -999.0      -999.0      -999.0      -999.0      -999.0      -999.0    
   9   -999.0      -999.0      -999.0      -999.0      -999.0      -999.0      -999.0      -999.0      -999.0      -999.0    
       -999.0      -999.0      -999.0      -999.0      -999.0      -999.0      -999.0      -999.0      -999.0      -999.0    
       -999.0      -999.0      -999.0      -999.0      -999.0      -999.0      -999.0      -999.0      -999.0      -999.0    
       -999.0      -999.0      -999.0      -999.0      -999.0      -999.0      -999.0      -999.0      -999.0      -999.0    
       -999.0      -999.0      -999.0      -999.0      -999.0      -999.0      -999.0      -999.0      -999.0      -999.0    
       -999.0      -999.0      -999.0      -999.0      -999.0      -999.0      -999.0      -999.0      -999.0      -999.0    
       -999.0      -999.0      -999.0      -999.0      -999.0      -999.0      -999.0      -999.0      -999.0      -999.0    
       -999.0      -999.0      -999.0      -999.0      -999.0      -999.0      -999.0      -999.0      -999.0      -999.0    
       -999.0      -999.0      -999.0      -999.0      -999.0      -999.0      -999.0      -999.0      -999.0      -999.0    
       -999.0      -999.0      -999.0      -999.0      -999.0      -999.0      -999.0      -999.0      -999.0      -999.0    
  10   -999.0      -999.0      -999.0      -999.0      -999.0      -999.0      -999.0      -999.0      -999.0      -999.0    
       -999.0      -999.0      -999.0      -999.0      -999.0      -999.0      -999.0      -999.0      -999.0      -999.0    
       -999.0      -999.0      -999.0      -999.0      -999.0      -999.0      -999.0      -999.0      -999.0      -999.0    
       -999.0      -999.0      -999.0      -999.0      -999.0      -999.0      -999.0      -999.0      -999.0      -999.0    
       -999.0      -999.0      -999.0      -999.0      -999.0      -999.0      -999.0      -999.0      -999.0      -999.0    
       -999.0      -999.0      -999.0      -999.0      -999.0      -999.0      -999.0      -999.0      -999.0      -999.0    
       -999.0      -999.0      -999.0      -999.0      -999.0      -999.0      -999.0      -999.0      -999.0      -999.0    
       -999.0      -999.0      -999.0      -999.0      -999.0      -999.0      -999.0      -999.0      -999.0      -999.0    
       -999.0      -999.0      -999.0      -999.0      -999.0      -999.0      -999.0      -999.0      -999.0      -999.0    
       -999.0      -999.0      -999.0      -999.0      -999.0      -999.0      -999.0      -999.0      -999.0      -999.0    
  11   -999.0      -999.0      -999.0      -999.0      -999.0      -999.0      -999.0      -999.0      -999.0      -999.0    
       -999.0      -999.0      -999.0      -999.0      -999.0      -999.0      -999.0      -999.0      -999.0      -999.0    
       -999.0      -999.0      -999.0      -999.0      -999.0      -999.0      -999.0      -999.0      -999.0      -999.0    
       -999.0      -999.0      -999.0      -999.0      -999.0      -999.0      -999.0      -999.0      -999.0      -999.0    
       -999.0      -999.0      -999.0      -999.0      -999.0      -999.0      -999.0      -999.0      -999.0      -999.0    
       -999.0      -999.0      -999.0      -999.0      -999.0      -999.0      -999.0      -999.0      -999.0      1.0000    
       1.0000      -999.0      -999.0      -999.0      -999.0      -999.0      -999.0      -999.0      -999.0      -999.0    
       -999.0      -999.0      -999.0      -999.0      -999.0      -999.0      -999.0      -999.0      -999.0      -999.0    
       -999.0      -999.0      -999.0      -999.0      -999.0      -999.0      -999.0      -999.0      -999.0      -999.0    
       -999.0      -999.0      -999.0      -999.0      -999.0      -999.0      -999.0      -999.0      -999.0      -999.0    
  12   -999.0      -999.0      -999.0      -999.0      -999.0      -999.0      -999.0      -999.0      -999.0      -999.0    
       -999.0      -999.0      -999.0      -999.0      -999.0      -999.0      -999.0      -999.0      -999.0      -999.0    
       -999.0      -999.0      -999.0      -999.0      -999.0      -999.0      -999.0      -999.0      -999.0      -999.0    
       -999.0      -999.0      -999.0      -999.0      -999.0      -999.0      -999.0      -999.0      -999.0      -999.0    
       -999.0      -999.0      -999.0      -999.0      -999.0      -999.0      -999.0      -999.0      -999.0      -999.0    
       -999.0      -999.0      -999.0      -999.0      -999.0      -999.0      -999.0      -999.0      1.0000      1.0000    
       1.0000      -999.0      -999.0      -999.0      -999.0      -999.0      -999.0      -999.0      -999.0      -999.0    
       -999.0      -999.0      -999.0      -999.0      -999.0      -999.0      -999.0      -999.0      -999.0      -999.0    
       -999.0      -999.0      -999.0      -999.0      -999.0      -999.0      -999.0      -999.0      -999.0      -999.0    
       -999.0      -999.0      -999.0      -999.0      -999.0      -999.0      -999.0      -999.0      -999.0      -999.0    
  13   -999.0      -999.0      -999.0      -999.0      -999.0      -999.0      -999.0      -999.0      -999.0      -999.0    
       -999.0      -999.0      -999.0      -999.0      -999.0      -999.0      -999.0      -999.0      -999.0      -999.0    
       -999.0      -999.0      -999.0      -999.0      -999.0      -999.0      -999.0      -999.0      -999.0      -999.0    
       -999.0      -999.0      -999.0      -999.0      -999.0      -999.0      -999.0      -999.0      -999.0      -999.0    
       -999.0      -999.0      -999.0      -999.0      -999.0      -999.0      -999.0      -999.0      -999.0      -999.0    
       -999.0      -999.0      -999.0      -999.0      -999.0      -999.0      -999.0      -999.0      1.0000       1.003    
       1.0000      -999.0      -999.0      -999.0      -999.0      -999.0      -999.0      -999.0      -999.0      -999.0    
       -999.0      -999.0      -999.0      -999.0      -999.0      -999.0      -999.0      -999.0      -999.0      -999.0    
       -999.0      -999.0      -999.0      -999.0      -999.0      -999.0      -999.0      -999.0      -999.0      -999.0    
       -999.0      -999.0      -999.0      -999.0      -999.0      -999.0      -999.0      -999.0      -999.0      -999.0    
  14   -999.0      -999.0      -999.0      -999.0      -999.0      -999.0      -999.0      -999.0      -999.0      -999.0    
       -999.0      -999.0      -999.0      -999.0      -999.0      -999.0      -999.0      -999.0      -999.0      -999.0    
       -999.0      -999.0      -999.0      -999.0      -999.0      -999.0      -999.0      -999.0      -999.0      -999.0    
       -999.0      -999.0      -999.0      -999.0      -999.0      -999.0      -999.0      -999.0      -999.0      -999.0    
       -999.0      -999.0      -999.0      -999.0      -999.0      -999.0      -999.0      -999.0      -999.0      -999.0    
       -999.0      -999.0      -999.0      -999.0      -999.0      -999.0      1.0000      1.0000      1.0000      1.0000    
       1.0000      -999.0      -999.0      -999.0      -999.0      -999.0      -999.0      -999.0      -999.0      -999.0    
       -999.0      -999.0      -999.0      -999.0      -999.0      -999.0      -999.0      -999.0      -999.0      -999.0    
       -999.0      -999.0      -999.0      -999.0      -999.0      -999.0      -999.0      -999.0      -999.0      -999.0    
       -999.0      -999.0      -999.0      -999.0      -999.0      -999.0      -999.0      -999.0      -999.0      -999.0    
  15   -999.0      -999.0      -999.0      -999.0      -999.0      -999.0      -999.0      -999.0      -999.0      -999.0    
       -999.0      -999.0      -999.0      -999.0      -999.0      -999.0      -999.0      -999.0      -999.0      -999.0    
       -999.0      -999.0      -999.0      -999.0      -999.0      -999.0      -999.0      -999.0      -999.0      -999.0    
       -999.0      -999.0      -999.0      -999.0      -999.0      -999.0      -999.0      -999.0      -999.0      -999.0    
       -999.0      -999.0      -999.0      -999.0      -999.0      -999.0      -999.0      -999.0      -999.0      -999.0    
       -999.0      -999.0      -999.0      -999.0      -999.0      -999.0      1.0000      1.0000       1.012      1.0000    
       -999.0      -999.0      -999.0      1.0000      -999.0      -999.0      -999.0      -999.0      -999.0      -999.0    
       -999.0      -999.0      -999.0      -999.0      -999.0      -999.0      -999.0      -999.0      -999.0      -999.0    
       -999.0      -999.0      -999.0      -999.0      -999.0      -999.0      -999.0      -999.0      -999.0      -999.0    
       -999.0      -999.0      -999.0      -999.0      1.0000      1.0000      -999.0      -999.0      -999.0      -999.0    
  16   -999.0      -999.0      -999.0      -999.0      -999.0      -999.0      -999.0      -999.0      -999.0      -999.0    
       -999.0      -999.0      -999.0      -999.0      -999.0      -999.0      -999.0      -999.0      -999.0      -999.0    
       -999.0      -999.0      -999.0      -999.0      -999.0      -999.0      -999.0      -999.0      -999.0      -999.0    
       -999.0      -999.0      -999.0      -999.0      -999.0      -999.0      -999.0      -999.0      -999.0      -999.0    
       -999.0      -999.0      -999.0      -999.0      -999.0      -999.0      -999.0      -999.0      -999.0      -999.0    
       -999.0      -999.0      -999.0      -999.0      1.0000      1.0000      1.0000       1.050      1.0000      1.0000    
       -999.0      1.0000      1.0000      1.0000      -999.0      -999.0      -999.0      -999.0      -999.0      -999.0    
       1.0000      1.0000      1.0000      -999.0      -999.0      -999.0      -999.0      -999.0      -999.0      -999.0    
       -999.0      -999.0      -999.0      -999.0      -999.0      -999.0      -999.0      -999.0      -999.0      -999.0    
       1.0000      -999.0      -999.0      1.0000      1.0000      1.0000      -999.0      -999.0      -999.0      -999.0    
  17   -999.0      -999.0      -999.0      -999.0      -999.0      -999.0      -999.0      -999.0      -999.0      -999.0    
       -999.0      -999.0      -999.0      -999.0      -999.0      -999.0      -999.0      -999.0      -999.0      -999.0    
       -999.0      -999.0      -999.0      -999.0      -999.0      -999.0      -999.0      -999.0      -999.0      -999.0    
       -999.0      -999.0      -999.0      -999.0      -999.0      -999.0      -999.0      -999.0      -999.0      -999.0    
       -999.0      -999.0      -999.0      -999.0      -999.0      -999.0      -999.0      -999.0      -999.0      -999.0    
       -999.0      -999.0      -999.0      -999.0      1.0000      1.0000      1.0000       1.094      1.0000      -999.0    
       1.0000      1.0000      1.0000      1.0000      -999.0      1.0000      1.0000      -999.0      1.0000      -999.0    
       1.0000      1.0000      1.0000      1.0000      1.0000      -999.0      -999.0      -999.0      -999.0      -999.0    
       -999.0      -999.0      -999.0      -999.0      -999.0      -999.0      -999.0      -999.0      -999.0      1.0000    
       1.0000      1.0000      1.0000      1.0000      1.0000      -999.0      -999.0      -999.0      -999.0      -999.0    
  18   -999.0      -999.0      -999.0      -999.0      -999.0      -999.0      -999.0      -999.0      -999.0      -999.0    
       -999.0      -999.0      -999.0      -999.0      -999.0      -999.0      -999.0      -999.0      -999.0      -999.0    
       -999.0      -999.0      -999.0      -999.0      -999.0      -999.0      -999.0      -999.0      -999.0      -999.0    
       -999.0      -999.0      -999.0      -999.0      -999.0      -999.0      -999.0      -999.0      -999.0      -999.0    
       -999.0      -999.0      -999.0      -999.0      -999.0      -999.0      -999.0      -999.0      -999.0      -999.0    
       -999.0      -999.0      -999.0      -999.0      1.0000       1.091       1.130       1.156      1.0000      1.0000    
       1.0000      0.9794       1.008      1.0000      1.0000      1.0000      1.0000      -999.0      1.0000      1.0000    
       1.0000      1.0000      1.0000      1.0000      1.0000      -999.0      -999.0      -999.0      -999.0      -999.0    
       -999.0      -999.0      -999.0      -999.0      -999.0      -999.0      -999.0      -999.0      -999.0      1.0000    
       0.9683      0.8907      0.7334      0.5734      1.0000      -999.0      -999.0      -999.0      -999.0      -999.0    
  19   -999.0      -999.0      -999.0      -999.0      -999.0      -999.0      -999.0      -999.0      -999.0      -999.0    
       -999.0      -999.0      -999.0      -999.0      -999.0      -999.0      -999.0      -999.0      -999.0      -999.0    
       -999.0      -999.0      -999.0      -999.0      -999.0      -999.0      -999.0      -999.0      -999.0      -999.0    
       -999.0      -999.0      -999.0      -999.0      -999.0      -999.0      -999.0      -999.0      -999.0      -999.0    
       -999.0      -999.0      -999.0      -999.0      -999.0      -999.0      -999.0      -999.0      -999.0      -999.0    
       -999.0      -999.0      1.0000      1.0000      1.0000       1.163       1.230       1.234       1.119      1.0000    
       1.0000      0.9141      0.9954      1.0000      1.0000      1.0000      1.0000      -999.0      1.0000      1.0000    
       1.0000       1.006      1.0000      1.0000      1.0000      -999.0      -999.0      -999.0      1.0000      -999.0    
       -999.0      -999.0      -999.0      -999.0      -999.0      -999.0      -999.0      1.0000      1.0000      1.0000    
       0.9362      0.7903      0.4572     -2.6302E-02  1.0000      -999.0      -999.0      -999.0      -999.0      -999.0    
  20   -999.0      -999.0      -999.0      -999.0      -999.0      -999.0      -999.0      -999.0      -999.0      -999.0    
       -999.0      -999.0      -999.0      -999.0      -999.0      -999.0      -999.0      -999.0      -999.0      -999.0    
       -999.0      -999.0      -999.0      -999.0      -999.0      -999.0      -999.0      -999.0      -999.0      -999.0    
       -999.0      -999.0      -999.0      -999.0      -999.0      -999.0      -999.0      -999.0      -999.0      -999.0    
       -999.0      -999.0      -999.0      -999.0      -999.0      -999.0      -999.0      -999.0      -999.0      -999.0    
       1.0000      1.0000      1.0000      1.0000      1.0000       1.228       1.314       1.311       1.208       1.050    
       0.8290      0.7719      0.9720       1.022      1.0000      1.0000      -999.0      -999.0      1.0000      1.0000    
       1.0000      0.9940       1.008      1.0000      1.0000      -999.0      -999.0      -999.0      1.0000      -999.0    
       -999.0      1.0000      -999.0      -999.0      -999.0      -999.0      -999.0      1.0000       1.008      0.9912    
       0.9137      0.7280      0.2088      0.3429      1.0000      -999.0      -999.0      -999.0      -999.0      -999.0    
  21   -999.0      -999.0      -999.0      -999.0      -999.0      -999.0      -999.0      -999.0      -999.0      -999.0    
       -999.0      -999.0      -999.0      -999.0      -999.0      -999.0      -999.0      -999.0      -999.0      -999.0    
       -999.0      -999.0      -999.0      -999.0      -999.0      -999.0      -999.0      -999.0      -999.0      -999.0    
       -999.0      -999.0      -999.0      -999.0      -999.0      -999.0      -999.0      -999.0      -999.0      -999.0    
       -999.0      -999.0      -999.0      -999.0      -999.0      -999.0      -999.0      -999.0      -999.0      -999.0    
       1.0000      1.0000       1.093      1.0000      1.0000       1.298       1.389       1.381       1.281       1.086    
       0.5820      0.5283      0.9583       1.039       1.032      1.0000      -999.0      1.0000      1.0000       1.023    
       0.9953      0.9543      1.0000      1.0000      -999.0      -999.0      1.0000      1.0000      1.0000      1.0000    
       1.0000      1.0000      1.0000      1.0000      -999.0      -999.0      -999.0      1.0000       1.009      0.9863    
       0.9078      0.7436      0.4651      0.5577      1.0000      -999.0      -999.0      -999.0      -999.0      -999.0    
  22   -999.0      -999.0      -999.0      -999.0      -999.0      -999.0      -999.0      -999.0      -999.0      -999.0    
       -999.0      -999.0      -999.0      -999.0      -999.0      -999.0      -999.0      -999.0      -999.0      -999.0    
       -999.0      -999.0      -999.0      -999.0      -999.0      -999.0      -999.0      -999.0      -999.0      -999.0    
       -999.0      -999.0      -999.0      -999.0      -999.0      -999.0      -999.0      -999.0      -999.0      -999.0    
       -999.0      -999.0      -999.0      -999.0      -999.0      -999.0      -999.0      -999.0      -999.0      1.0000    
       1.0000       1.108       1.202       1.194       1.228       1.392       1.458       1.443       1.349       1.175    
       0.8758      0.8167       1.008       1.057       1.048      1.0000      1.0000      1.0000      1.0000       1.038    
       0.9722      0.8688      1.0000      1.0000      -999.0      1.0000      1.0000       1.049       1.053      1.0000    
       1.0000      1.0000      1.0000      1.0000      1.0000      -999.0      -999.0      1.0000       1.006      0.9837    
       0.9125      0.7774      0.6074      0.6646      1.0000      1.0000      -999.0      -999.0      -999.0      -999.0    
  23   -999.0      -999.0      -999.0      -999.0      -999.0      -999.0      -999.0      -999.0      -999.0      -999.0    
       -999.0      -999.0      -999.0      -999.0      -999.0      -999.0      -999.0      -999.0      -999.0      -999.0    
       -999.0      -999.0      -999.0      -999.0      -999.0      -999.0      -999.0      -999.0      -999.0      -999.0    
       -999.0      -999.0      -999.0      -999.0      -999.0      -999.0      -999.0      -999.0      -999.0      -999.0    
       -999.0      -999.0      -999.0      -999.0      -999.0      -999.0      -999.0      -999.0      -999.0      1.0000    
       1.0000       1.190       1.306       1.344       1.387       1.478       1.515       1.492       1.407       1.266    
        1.073       1.005       1.066       1.068       1.050      1.0000      1.0000       1.046       1.064       1.058    
       0.9373      0.6973      0.9418      1.0000      1.0000      1.0000      1.0000       1.090       1.100       1.065    
       1.0000      1.0000       1.050       1.052      1.0000      1.0000      -999.0      1.0000      0.9986      0.9815    
       0.9217      0.8080      0.6751      0.6828      0.9491      1.0000      -999.0      -999.0      -999.0      -999.0    
  24   -999.0      -999.0      -999.0      -999.0      -999.0      -999.0      -999.0      -999.0      -999.0      -999.0    
       -999.0      -999.0      -999.0      -999.0      -999.0      -999.0      -999.0      -999.0      -999.0      -999.0    
       -999.0      -999.0      -999.0      -999.0      -999.0      -999.0      -999.0      -999.0      -999.0      -999.0    
       -999.0      -999.0      -999.0      -999.0      -999.0      -999.0      -999.0      -999.0      -999.0      -999.0    
       -999.0      -999.0      -999.0      -999.0      -999.0      -999.0      -999.0      -999.0      -999.0      1.0000    
       1.0000       1.261       1.398       1.459       1.500       1.546       1.556       1.525       1.450       1.340    
        1.205       1.128       1.108       1.061       1.037       1.012       1.020       1.076       1.112       1.089    
       0.9127      0.3717      0.9122       1.064       1.097       1.099       1.095       1.130       1.139       1.117    
        1.068      1.0000       1.097       1.104       1.058      1.0000      -999.0      1.0000      0.9824      0.9782    
       0.9328      0.8310      0.6917      0.6177      0.9441      1.0000      -999.0      -999.0      -999.0      -999.0    
  25   -999.0      -999.0      -999.0      -999.0      -999.0      -999.0      -999.0      -999.0      -999.0      -999.0    
       -999.0      -999.0      -999.0      -999.0      -999.0      -999.0      -999.0      -999.0      -999.0      -999.0    
       -999.0      -999.0      -999.0      -999.0      -999.0      -999.0      -999.0      -999.0      -999.0      -999.0    
       -999.0      -999.0      -999.0      -999.0      -999.0      -999.0      -999.0      -999.0      -999.0      -999.0    
       -999.0      -999.0      -999.0      -999.0      -999.0      -999.0      1.0000      1.0000      1.0000      1.0000    
        1.138       1.335       1.477       1.545       1.577       1.590       1.574       1.537       1.470       1.390    
        1.289       1.203       1.125       1.024       1.002      0.9917       1.003       1.087       1.152       1.138    
       0.9654      0.4246      0.9664       1.138       1.181       1.177       1.159       1.156       1.164       1.155    
        1.126       1.104       1.153       1.154       1.103      1.0000      1.0000      1.0000      0.9498      0.9733    
       0.9464      0.8513      0.6776      0.4308      1.0000      1.0000      -999.0      -999.0      -999.0      -999.0    
  26   -999.0      -999.0      -999.0      -999.0      -999.0      -999.0      -999.0      -999.0      -999.0      -999.0    
       -999.0      -999.0      -999.0      -999.0      -999.0      -999.0      -999.0      -999.0      -999.0      -999.0    
       -999.0      -999.0      -999.0      -999.0      -999.0      -999.0      -999.0      -999.0      -999.0      -999.0    
       -999.0      -999.0      -999.0      -999.0      -999.0      -999.0      -999.0      -999.0      -999.0      -999.0    
       -999.0      -999.0      -999.0      -999.0      -999.0      -999.0      1.0000      1.0000      1.0000      1.0000    
        1.218       1.381       1.515       1.579       1.599       1.579       1.536       1.494       1.441       1.391    
        1.316       1.223       1.096      0.9335      0.9308      0.9337      0.9333       1.073       1.181       1.198    
        1.085      0.8442       1.088       1.213       1.245       1.227       1.185       1.147       1.161       1.165    
        1.158       1.164       1.197       1.194       1.137      1.0000      1.0000      0.7246      0.8758      0.9607    
       0.9580      0.8724      0.6628      7.9215E-04  1.0000      -999.0      -999.0      -999.0      -999.0      -999.0    
  27   -999.0      -999.0      -999.0      -999.0      -999.0      -999.0      -999.0      -999.0      -999.0      -999.0    
       -999.0      -999.0      -999.0      -999.0      -999.0      -999.0      -999.0      -999.0      -999.0      -999.0    
       -999.0      -999.0      -999.0      -999.0      -999.0      -999.0      -999.0      -999.0      -999.0      -999.0    
       -999.0      -999.0      -999.0      -999.0      -999.0      -999.0      -999.0      -999.0      -999.0      -999.0    
       -999.0      -999.0      -999.0      -999.0      -999.0      -999.0      1.0000      1.0000       1.087       1.131    
        1.270       1.394       1.510       1.564       1.569       1.514       1.435       1.394       1.357       1.346    
        1.295       1.199       1.023      0.7674      0.8263      0.8444      0.7940       1.034       1.204       1.259    
        1.205       1.098       1.208       1.281       1.289       1.250       1.178       1.091       1.129       1.145    
        1.161       1.191       1.225       1.224       1.168       1.043      0.8868      0.3131      0.7986      0.9506    
       0.9715      0.9066      0.7505      0.4886      1.0000      -999.0      -999.0      -999.0      -999.0      -999.0    
  28   -999.0      -999.0      -999.0      -999.0      -999.0      -999.0      -999.0      -999.0      -999.0      -999.0    
       -999.0      -999.0      -999.0      -999.0      -999.0      -999.0      -999.0      -999.0      -999.0      -999.0    
       -999.0      -999.0      -999.0      -999.0      -999.0      -999.0      -999.0      -999.0      -999.0      -999.0    
       -999.0      -999.0      -999.0      -999.0      -999.0      -999.0      -999.0      -999.0      -999.0      -999.0    
       -999.0      -999.0      -999.0      -999.0      -999.0      1.0000      1.0000       1.084       1.144       1.194    
        1.284       1.367       1.459       1.501       1.493       1.393       1.262       1.230       1.214       1.259    
        1.233       1.144      0.9182      0.4835      0.7008      0.7419      0.5432      0.9836       1.225       1.317    
        1.307       1.260       1.305       1.333       1.313       1.249       1.142      0.9681       1.070       1.092    
        1.136       1.193       1.238       1.244       1.193       1.072      0.8659      0.2869      0.7907      0.9548    
       0.9877      0.9449      0.8463      0.7448      1.0000      -999.0      -999.0      -999.0      -999.0      -999.0    
  29   -999.0      -999.0      -999.0      -999.0      -999.0      -999.0      -999.0      -999.0      -999.0      -999.0    
       -999.0      -999.0      -999.0      -999.0      -999.0      -999.0      -999.0      -999.0      -999.0      -999.0    
       -999.0      -999.0      -999.0      -999.0      -999.0      -999.0      -999.0      -999.0      -999.0      -999.0    
       -999.0      -999.0      -999.0      -999.0      -999.0      -999.0      -999.0      -999.0      -999.0      -999.0    
       -999.0      -999.0      -999.0      -999.0      -999.0      1.0000       1.068       1.131       1.161       1.204    
        1.259       1.296       1.360       1.389       1.380       1.220      1.0000      1.0000      1.0000       1.137    
        1.135       1.072      0.8168     -1.0339E-02  0.5913      0.6725      8.6234E-02  0.9548       1.255       1.369    
        1.385       1.364       1.372       1.365       1.317       1.228       1.092      0.7372      1.0000      1.0000    
        1.082       1.173       1.237       1.254       1.212       1.103      0.9252      0.6397      0.8540      0.9734    
        1.004      0.9778      0.9223      0.8834      1.0000      -999.0      -999.0      -999.0      -999.0      -999.0    
  30   -999.0      -999.0      -999.0      -999.0      -999.0      -999.0      -999.0      -999.0      -999.0      -999.0    
       -999.0      -999.0      -999.0      -999.0      -999.0      -999.0      -999.0      -999.0      -999.0      -999.0    
       -999.0      -999.0      -999.0      -999.0      -999.0      -999.0      -999.0      -999.0      -999.0      -999.0    
       -999.0      -999.0      -999.0      -999.0      -999.0      -999.0      -999.0      -999.0      -999.0      -999.0    
       -999.0      -999.0      -999.0      -999.0      -999.0      1.0000       1.105       1.147       1.133       1.168    
        1.196       1.176       1.209       1.226       1.246      1.0000      1.0000      1.0000      1.0000      1.0000    
       1.0000      1.0000      0.8175     -0.2300      0.5913      0.7527      0.5917       1.049       1.303       1.415    
        1.439       1.425       1.411       1.375       1.299       1.187       1.069      1.0000      1.0000      1.0000    
       1.0000       1.135       1.225       1.255       1.224       1.132      0.9923      0.8350      0.9216      0.9949    
        1.015      0.9981      0.9730      0.9594      1.0000      -999.0      -999.0      -999.0      -999.0      -999.0    
  31   -999.0      -999.0      -999.0      -999.0      -999.0      -999.0      -999.0      -999.0      -999.0      -999.0    
       -999.0      -999.0      -999.0      -999.0      -999.0      -999.0      -999.0      -999.0      -999.0      -999.0    
       -999.0      -999.0      -999.0      -999.0      -999.0      -999.0      -999.0      -999.0      -999.0      -999.0    
       -999.0      -999.0      -999.0      -999.0      -999.0      -999.0      -999.0      -999.0      -999.0      -999.0    
       -999.0      -999.0      -999.0      -999.0      1.0000      1.0000       1.129       1.135       1.050       1.093    
        1.103      1.0000      1.0000      1.0000       1.123      1.0000      -999.0      -999.0      -999.0      -999.0    
       1.0000      1.0000      1.0000      0.4007      0.7388      0.8886      0.8965       1.166       1.358       1.451    
        1.470       1.454       1.422       1.362       1.258       1.114      1.0000      1.0000      -999.0      1.0000    
       1.0000       1.085       1.203       1.249       1.229       1.152       1.043      0.9423      0.9716       1.010    
        1.015      1.0000      1.0000      1.0000      1.0000      -999.0      -999.0      -999.0      -999.0      -999.0    
  32   -999.0      -999.0      -999.0      -999.0      -999.0      -999.0      -999.0      -999.0      -999.0      -999.0    
       -999.0      -999.0      -999.0      -999.0      -999.0      -999.0      -999.0      -999.0      -999.0      -999.0    
       -999.0      -999.0      -999.0      -999.0      -999.0      -999.0      -999.0      -999.0      -999.0      -999.0    
       -999.0      -999.0      -999.0      -999.0      -999.0      -999.0      -999.0      -999.0      -999.0      -999.0    
       -999.0      -999.0      -999.0      1.0000      1.0000       1.087       1.157       1.105      0.8909      0.9844    
       1.0000      1.0000      -999.0      1.0000      1.0000      1.0000      -999.0      -999.0      -999.0      -999.0    
       -999.0      -999.0      1.0000      0.7436      0.9054       1.031       1.098       1.272       1.408       1.473    
        1.478       1.453       1.408       1.327       1.196      1.0000      1.0000      -999.0      -999.0      -999.0    
       1.0000      1.0000       1.176       1.235       1.224       1.160       1.070      0.9930      0.9977       1.012    
       1.0000      1.0000      1.0000      1.0000      -999.0      -999.0      -999.0      -999.0      -999.0      -999.0    
  33   -999.0      -999.0      -999.0      -999.0      -999.0      -999.0      -999.0      -999.0      -999.0      -999.0    
       -999.0      -999.0      -999.0      -999.0      -999.0      -999.0      -999.0      -999.0      -999.0      -999.0    
       -999.0      -999.0      -999.0      -999.0      -999.0      -999.0      -999.0      -999.0      -999.0      -999.0    
       -999.0      -999.0      -999.0      -999.0      -999.0      -999.0      -999.0      -999.0      -999.0      -999.0    
       -999.0      -999.0      -999.0      1.0000      1.0000       1.148       1.188       1.079      0.6055      0.8550    
       1.0000      1.0000      1.0000      1.0000      -999.0      -999.0      -999.0      -999.0      -999.0      -999.0    
       -999.0      -999.0      1.0000      0.9404       1.050       1.158       1.238       1.356       1.445       1.478    
        1.461       1.425       1.369       1.272       1.119      1.0000      -999.0      -999.0      -999.0      -999.0    
       -999.0      1.0000       1.156       1.216       1.208       1.153       1.072      1.0000      1.0000      1.0000    
       1.0000      -999.0      -999.0      -999.0      -999.0      -999.0      -999.0      -999.0      -999.0      -999.0    
  34   -999.0      -999.0      -999.0      -999.0      -999.0      -999.0      -999.0      -999.0      -999.0      -999.0    
       -999.0      -999.0      -999.0      -999.0      -999.0      -999.0      -999.0      -999.0      -999.0      -999.0    
       -999.0      -999.0      -999.0      -999.0      -999.0      -999.0      -999.0      -999.0      -999.0      -999.0    
       -999.0      -999.0      -999.0      -999.0      -999.0      -999.0      -999.0      -999.0      -999.0      -999.0    
       -999.0      -999.0      -999.0      1.0000       1.092       1.208       1.231       1.109      0.7762      0.7120    
       0.9983       1.057      1.0000      1.0000      -999.0      -999.0      1.0000      -999.0      -999.0      -999.0    
       -999.0      1.0000      1.0000       1.059       1.162       1.259       1.336       1.416       1.466       1.464    
        1.415       1.369       1.308       1.199      1.0000      1.0000      -999.0      -999.0      -999.0      -999.0    
       -999.0      1.0000       1.137       1.190       1.181       1.131       1.051      1.0000      -999.0      1.0000    
       1.0000      -999.0      -999.0      -999.0      -999.0      -999.0      -999.0      -999.0      -999.0      -999.0    
  35   -999.0      -999.0      -999.0      -999.0      -999.0      -999.0      -999.0      -999.0      -999.0      -999.0    
       -999.0      -999.0      -999.0      -999.0      -999.0      -999.0      -999.0      -999.0      -999.0      -999.0    
       -999.0      -999.0      -999.0      -999.0      -999.0      -999.0      -999.0      -999.0      -999.0      -999.0    
       -999.0      -999.0      -999.0      -999.0      -999.0      -999.0      -999.0      -999.0      -999.0      -999.0    
       -999.0      -999.0      -999.0      1.0000       1.146       1.265       1.282       1.154      0.8318      0.4314    
        1.016       1.103      0.9677      1.0000      1.0000      1.0000      1.0000      1.0000      -999.0      -999.0    
       -999.0      -999.0      1.0000       1.134       1.245       1.335       1.401       1.453       1.468       1.429    
        1.334       1.284       1.227       1.118      1.0000      -999.0      -999.0      -999.0      -999.0      -999.0    
       -999.0      1.0000       1.117       1.156       1.140       1.097      1.0000      1.0000      -999.0      -999.0    
       -999.0      -999.0      -999.0      -999.0      -999.0      -999.0      -999.0      -999.0      -999.0      -999.0    
  36   -999.0      -999.0      -999.0      -999.0      -999.0      -999.0      -999.0      -999.0      -999.0      -999.0    
       -999.0      -999.0      -999.0      -999.0      -999.0      -999.0      -999.0      -999.0      -999.0      -999.0    
       -999.0      -999.0      -999.0      -999.0      -999.0      -999.0      -999.0      -999.0      -999.0      -999.0    
       -999.0      -999.0      -999.0      -999.0      -999.0      -999.0      -999.0      -999.0      -999.0      -999.0    
       -999.0      -999.0      -999.0      1.0000       1.172       1.311       1.337       1.198      0.8553      0.5242    
        1.117       1.156      0.8380       1.086       1.151       1.117      1.0000      -999.0      -999.0      -999.0    
       -999.0      -999.0      1.0000       1.177       1.296       1.379       1.433       1.461       1.448       1.371    
        1.203       1.161       1.122      1.0000      1.0000      -999.0      -999.0      -999.0      -999.0      -999.0    
       -999.0      1.0000       1.093       1.113       1.082       1.055      1.0000      -999.0      -999.0      -999.0    
       -999.0      -999.0      -999.0      -999.0      -999.0      -999.0      -999.0      -999.0      -999.0      -999.0    
  37   -999.0      -999.0      -999.0      -999.0      -999.0      -999.0      -999.0      -999.0      -999.0      -999.0    
       -999.0      -999.0      -999.0      -999.0      -999.0      -999.0      -999.0      -999.0      -999.0      -999.0    
       -999.0      -999.0      -999.0      -999.0      -999.0      -999.0      -999.0      -999.0      -999.0      -999.0    
       -999.0      -999.0      -999.0      -999.0      -999.0      -999.0      -999.0      -999.0      -999.0      -999.0    
       -999.0      -999.0      -999.0      1.0000       1.168       1.352       1.399       1.245      0.8220       1.007    
        1.315       1.252      0.5020       1.170       1.273       1.203      1.0000      -999.0      -999.0      -999.0    
       -999.0      -999.0      1.0000       1.197       1.319       1.393       1.434       1.444       1.407       1.299    
       1.0000      1.0000      1.0000      1.0000      -999.0      -999.0      -999.0      -999.0      -999.0      -999.0    
       1.0000      1.0000       1.066       1.061      1.0000      1.0000      1.0000      -999.0      -999.0      -999.0    
       -999.0      -999.0      -999.0      -999.0      -999.0      -999.0      -999.0      -999.0      -999.0      -999.0    
  38   -999.0      -999.0      -999.0      -999.0      -999.0      -999.0      -999.0      -999.0      -999.0      -999.0    
       -999.0      -999.0      -999.0      -999.0      -999.0      -999.0      -999.0      -999.0      -999.0      -999.0    
       -999.0      -999.0      -999.0      -999.0      -999.0      -999.0      -999.0      -999.0      -999.0      -999.0    
       -999.0      -999.0      -999.0      -999.0      -999.0      -999.0      -999.0      -999.0      -999.0      -999.0    
       1.0000      1.0000      -999.0      1.0000       1.123       1.394       1.478       1.313       1.264       1.402    
        1.561       1.482       1.118       1.356       1.389       1.274      1.0000      -999.0      -999.0      -999.0    
       -999.0      -999.0      1.0000       1.201       1.317       1.378       1.406       1.401       1.349       1.240    
       1.0000      1.0000      1.0000      1.0000      -999.0      -999.0      -999.0      -999.0      -999.0      -999.0    
       -999.0      1.0000       1.035      1.0000      1.0000      -999.0      -999.0      -999.0      -999.0      -999.0    
       -999.0      -999.0      -999.0      -999.0      -999.0      -999.0      -999.0      -999.0      -999.0      -999.0    
  39   -999.0      -999.0      -999.0      -999.0      -999.0      -999.0      -999.0      -999.0      -999.0      -999.0    
       -999.0      -999.0      -999.0      -999.0      -999.0      -999.0      -999.0      -999.0      -999.0      -999.0    
       -999.0      -999.0      -999.0      -999.0      -999.0      -999.0      -999.0      -999.0      -999.0      -999.0    
       -999.0      -999.0      -999.0      -999.0      -999.0      -999.0      -999.0      -999.0      -999.0      -999.0    
       1.0000      1.0000      1.0000      1.0000      1.0000       1.450       1.588       1.294       1.602       1.738    
        1.818       1.736       1.517       1.546       1.493       1.336      1.0000      1.0000      1.0000      -999.0    
       -999.0      -999.0      1.0000       1.191       1.292       1.334       1.349       1.332       1.268       1.178    
       1.0000      -999.0      -999.0      -999.0      -999.0      -999.0      -999.0      -999.0      -999.0      -999.0    
       -999.0      1.0000      1.0000      1.0000      -999.0      -999.0      -999.0      -999.0      -999.0      -999.0    
       -999.0      -999.0      -999.0      -999.0      -999.0      -999.0      -999.0      -999.0      -999.0      -999.0    
  40   -999.0      -999.0      -999.0      -999.0      -999.0      -999.0      -999.0      -999.0      -999.0      -999.0    
       -999.0      -999.0      -999.0      -999.0      -999.0      -999.0      -999.0      -999.0      -999.0      -999.0    
       -999.0      -999.0      -999.0      -999.0      -999.0      -999.0      -999.0      -999.0      -999.0      -999.0    
       -999.0      -999.0      -999.0      -999.0      -999.0      -999.0      -999.0      -999.0      -999.0      1.0000    
       1.0000       1.067      1.0000      -999.0      1.0000       1.554       1.778       1.753       1.934       2.036    
        2.065       1.975       1.796       1.705       1.574       1.394       1.140       1.060      1.0000      -999.0    
       -999.0      -999.0      1.0000       1.167       1.245       1.260       1.264       1.240       1.157       1.102    
       1.0000      -999.0      -999.0      -999.0      -999.0      -999.0      -999.0      -999.0      -999.0      -999.0    
       -999.0      -999.0      1.0000      -999.0      -999.0      -999.0      -999.0      -999.0      -999.0      -999.0    
       -999.0      -999.0      -999.0      -999.0      -999.0      -999.0      -999.0      -999.0      -999.0      -999.0    
  41   -999.0      -999.0      -999.0      -999.0      -999.0      -999.0      -999.0      -999.0      -999.0      -999.0    
       -999.0      -999.0      -999.0      -999.0      -999.0      -999.0      -999.0      -999.0      -999.0      -999.0    
       -999.0      -999.0      -999.0      -999.0      1.0000      -999.0      -999.0      -999.0      -999.0      -999.0    
       -999.0      1.0000      -999.0      -999.0      -999.0      -999.0      -999.0      -999.0      1.0000      1.0000    
        1.135       1.147      1.0000      1.0000      1.0000       1.710       2.000       2.102       2.233       2.301    
        2.292       2.183       2.000       1.824       1.616       1.421       1.180       1.063      1.0000      -999.0    
       -999.0      -999.0      1.0000       1.129       1.178       1.152       1.148       1.125      1.0000      1.0000    
       1.0000      -999.0      -999.0      -999.0      -999.0      -999.0      -999.0      -999.0      -999.0      -999.0    
       -999.0      -999.0      -999.0      -999.0      -999.0      -999.0      -999.0      -999.0      -999.0      -999.0    
       -999.0      -999.0      -999.0      -999.0      -999.0      -999.0      -999.0      -999.0      -999.0      -999.0    
  42   -999.0      -999.0      -999.0      -999.0      -999.0      -999.0      -999.0      -999.0      -999.0      -999.0    
       -999.0      -999.0      -999.0      -999.0      -999.0      -999.0      -999.0      -999.0      -999.0      -999.0    
       -999.0      -999.0      -999.0      1.0000      1.0000      -999.0      -999.0      -999.0      -999.0      1.0000    
       1.0000      1.0000      -999.0      -999.0      -999.0      -999.0      -999.0      -999.0      1.0000       1.164    
        1.281       1.247      1.0000      1.0000       1.425       1.943       2.236       2.390       2.496       2.534    
        2.492       2.359       2.149       1.901       1.603       1.408       1.135      1.0000      1.0000      -999.0    
       -999.0      -999.0      1.0000       1.076       1.093      1.0000      1.0000      1.0000      1.0000      -999.0    
       -999.0      -999.0      -999.0      -999.0      -999.0      -999.0      -999.0      -999.0      -999.0      -999.0    
       -999.0      -999.0      -999.0      -999.0      -999.0      -999.0      -999.0      -999.0      -999.0      -999.0    
       -999.0      -999.0      -999.0      -999.0      -999.0      -999.0      -999.0      -999.0      -999.0      -999.0    
  43   -999.0      -999.0      -999.0      -999.0      -999.0      -999.0      -999.0      -999.0      -999.0      -999.0    
       -999.0      -999.0      -999.0      -999.0      -999.0      -999.0      -999.0      -999.0      -999.0      1.0000    
       -999.0      1.0000      1.0000      1.0000      1.0000      -999.0      -999.0      -999.0      1.0000      1.0000    
       1.0000      1.0000      -999.0      -999.0      -999.0      -999.0      -999.0      1.0000      1.0000       1.317    
        1.446       1.382       1.122       1.385       1.787       2.200       2.472       2.638       2.724       2.734    
        2.663       2.503       2.258       1.938       1.509       1.365      1.0000      1.0000      -999.0      -999.0    
       -999.0      -999.0      1.0000      1.0000      1.0000      1.0000      1.0000      -999.0      -999.0      -999.0    
       -999.0      -999.0      -999.0      -999.0      -999.0      -999.0      -999.0      -999.0      -999.0      -999.0    
       -999.0      -999.0      -999.0      -999.0      -999.0      -999.0      -999.0      -999.0      -999.0      -999.0    
       -999.0      -999.0      -999.0      -999.0      -999.0      -999.0      -999.0      -999.0      -999.0      -999.0    
  44   -999.0      -999.0      -999.0      -999.0      -999.0      -999.0      -999.0      -999.0      -999.0      -999.0    
       -999.0      -999.0      -999.0      -999.0      -999.0      -999.0      -999.0      1.0000      1.0000      1.0000    
       1.0000      1.0000      1.0000       1.104      1.0000      1.0000      1.0000      1.0000      1.0000       1.207    
        1.185      1.0000      1.0000      1.0000      -999.0      1.0000      1.0000      1.0000      1.0000       1.499    
        1.640       1.547       1.064       1.694       2.110       2.459       2.700       2.855       2.919       2.904    
        2.806       2.617       2.334       1.954       1.286       1.330      1.0000      -999.0      -999.0      -999.0    
       -999.0      -999.0      1.0000      -999.0      -999.0      -999.0      -999.0      -999.0      -999.0      -999.0    
       -999.0      -999.0      -999.0      -999.0      -999.0      -999.0      -999.0      -999.0      -999.0      -999.0    
       -999.0      -999.0      -999.0      -999.0      -999.0      -999.0      -999.0      -999.0      -999.0      -999.0    
       -999.0      -999.0      -999.0      -999.0      -999.0      -999.0      -999.0      -999.0      -999.0      -999.0    
  45   -999.0      -999.0      -999.0      -999.0      -999.0      -999.0      -999.0      -999.0      -999.0      -999.0    
       -999.0      -999.0      -999.0      -999.0      -999.0      1.0000      1.0000      1.0000      1.0000       1.138    
       1.0000      1.0000       1.231       1.253      1.0000      1.0000      1.0000      1.0000       1.309       1.455    
        1.393      1.0000      1.0000      1.0000      1.0000      1.0000      1.0000       1.324       1.452       1.756    
        1.875       1.796       1.360       2.024       2.414       2.709       2.915       3.042       3.083       3.043    
        2.919       2.704       2.385       1.996       1.510       1.345      1.0000      1.0000      -999.0      -999.0    
       -999.0      -999.0      -999.0      -999.0      -999.0      -999.0      -999.0      -999.0      -999.0      -999.0    
       -999.0      -999.0      -999.0      -999.0      -999.0      -999.0      -999.0      -999.0      -999.0      -999.0    
       -999.0      -999.0      -999.0      -999.0      -999.0      -999.0      -999.0      -999.0      -999.0      -999.0    
       -999.0      -999.0      -999.0      -999.0      -999.0      -999.0      -999.0      -999.0      -999.0      -999.0    
  46   -999.0      -999.0      -999.0      -999.0      -999.0      -999.0      -999.0      -999.0      -999.0      -999.0    
       -999.0      -999.0      -999.0      -999.0      -999.0      1.0000      1.0000       1.139       1.224       1.336    
        1.332       1.370       1.491       1.451      1.0000      1.0000       1.336       1.436       1.630       1.728    
        1.670       1.430       1.291      1.0000      1.0000       1.282       1.424       1.658       1.812       2.019    
        2.122       2.099       1.985       2.365       2.678       2.920       3.086       3.183       3.199       3.135    
        2.987       2.748       2.405       2.014       1.597       1.357       1.113      1.0000      1.0000      -999.0    
       -999.0      -999.0      -999.0      -999.0      -999.0      -999.0      -999.0      -999.0      -999.0      -999.0    
       -999.0      -999.0      -999.0      -999.0      -999.0      -999.0      -999.0      -999.0      -999.0      -999.0    
       -999.0      -999.0      -999.0      -999.0      -999.0      -999.0      -999.0      -999.0      -999.0      -999.0    
       -999.0      -999.0      -999.0      -999.0      -999.0      -999.0      -999.0      -999.0      -999.0      -999.0    
  47   -999.0      -999.0      -999.0      -999.0      -999.0      -999.0      -999.0      -999.0      -999.0      -999.0    
       -999.0      -999.0      -999.0      -999.0      -999.0      1.0000      1.0000       1.279       1.427       1.554    
        1.625       1.691       1.769       1.733       1.514       1.518       1.705       1.813       1.944       2.011    
        1.964       1.797       1.587      1.0000      1.0000       1.566       1.780       1.970       2.115       2.266    
        2.358       2.384       2.410       2.658       2.898       3.086       3.211       3.277       3.266       3.179    
        3.011       2.750       2.387       1.988       1.586       1.320       1.141       1.035      1.0000      -999.0    
       -999.0      -999.0      -999.0      -999.0      -999.0      -999.0      -999.0      -999.0      -999.0      -999.0    
       -999.0      -999.0      -999.0      -999.0      -999.0      -999.0      -999.0      -999.0      -999.0      -999.0    
       -999.0      -999.0      -999.0      -999.0      -999.0      -999.0      -999.0      -999.0      -999.0      -999.0    
       -999.0      -999.0      -999.0      -999.0      -999.0      -999.0      -999.0      -999.0      -999.0      -999.0    
  48   -999.0      -999.0      -999.0      -999.0      -999.0      -999.0      -999.0      -999.0      -999.0      -999.0    
       -999.0      -999.0      -999.0      -999.0      -999.0      1.0000       1.190       1.441       1.622       1.772    
        1.891       1.981       2.050       2.039       1.939       1.951       2.063       2.152       2.244       2.293    
        2.260       2.138       1.948       1.617       1.604       1.908       2.099       2.250       2.372       2.487    
        2.570       2.625       2.710       2.889       3.067       3.204       3.288       3.321       3.283       3.176    
        2.989       2.709       2.328       1.913       1.486       1.208       1.098      1.0000      1.0000      -999.0    
       -999.0      -999.0      -999.0      -999.0      -999.0      -999.0      -999.0      -999.0      -999.0      -999.0    
       -999.0      -999.0      -999.0      -999.0      -999.0      -999.0      -999.0      -999.0      -999.0      -999.0    
       -999.0      -999.0      -999.0      -999.0      -999.0      -999.0      -999.0      -999.0      -999.0      -999.0    
[...]
       -999.0      -999.0      -999.0      -999.0      -999.0      -999.0      -999.0      -999.0      -999.0      -999.0    
       -999.0      -999.0      -999.0      -999.0      -999.0      -999.0      1.0000       1.036       1.038      1.0000    
       1.0000      1.0000       1.039      1.0000      1.0000      1.0000      1.0000      0.9964      1.0000      -999.0    
       -999.0      -999.0      -999.0      -999.0      -999.0      -999.0      -999.0      -999.0      -999.0      -999.0    
       -999.0      -999.0      -999.0      -999.0      -999.0      -999.0      -999.0      -999.0      -999.0      -999.0    
       -999.0      -999.0      -999.0      -999.0      -999.0      -999.0      -999.0      -999.0      -999.0      -999.0    
       -999.0      -999.0      -999.0      -999.0      -999.0      -999.0      -999.0      -999.0      -999.0      -999.0    
       -999.0      -999.0      -999.0      -999.0      -999.0      -999.0      -999.0      -999.0      -999.0      -999.0    
       -999.0      -999.0      -999.0      -999.0      -999.0      -999.0      -999.0      -999.0      -999.0      -999.0    
  89   -999.0      -999.0      -999.0      -999.0      -999.0      -999.0      -999.0      -999.0      -999.0      -999.0    
       -999.0      -999.0      -999.0      -999.0      -999.0      -999.0      -999.0      -999.0      -999.0      -999.0    
       -999.0      -999.0      -999.0      -999.0      -999.0      -999.0      1.0000      1.0000      1.0000      1.0000    
       -999.0      1.0000       1.031      1.0000      -999.0      -999.0      1.0000       1.002      1.0000      -999.0    
       -999.0      -999.0      -999.0      -999.0      -999.0      -999.0      -999.0      -999.0      -999.0      -999.0    
       -999.0      -999.0      -999.0      -999.0      -999.0      -999.0      -999.0      -999.0      -999.0      -999.0    
       -999.0      -999.0      -999.0      -999.0      -999.0      -999.0      -999.0      -999.0      -999.0      -999.0    
       -999.0      -999.0      -999.0      -999.0      -999.0      -999.0      -999.0      -999.0      -999.0      -999.0    
       -999.0      -999.0      -999.0      -999.0      -999.0      -999.0      -999.0      -999.0      -999.0      -999.0    
       -999.0      -999.0      -999.0      -999.0      -999.0      -999.0      -999.0      -999.0      -999.0      -999.0    
  90   -999.0      -999.0      -999.0      -999.0      -999.0      -999.0      -999.0      -999.0      -999.0      -999.0    
       -999.0      -999.0      -999.0      -999.0      -999.0      -999.0      -999.0      -999.0      -999.0      -999.0    
       -999.0      -999.0      -999.0      -999.0      -999.0      -999.0      -999.0      -999.0      1.0000      -999.0    
       -999.0      1.0000       1.026      1.0000      -999.0      -999.0      1.0000      1.0000      1.0000      -999.0    
       -999.0      -999.0      -999.0      -999.0      -999.0      -999.0      -999.0      -999.0      -999.0      -999.0    
       -999.0      -999.0      -999.0      -999.0      -999.0      -999.0      -999.0      -999.0      -999.0      -999.0    
       -999.0      -999.0      -999.0      -999.0      -999.0      -999.0      -999.0      -999.0      -999.0      -999.0    
       -999.0      -999.0      -999.0      -999.0      -999.0      -999.0      -999.0      -999.0      -999.0      -999.0    
       -999.0      -999.0      -999.0      -999.0      -999.0      -999.0      -999.0      -999.0      -999.0      -999.0    
       -999.0      -999.0      -999.0      -999.0      -999.0      -999.0      -999.0      -999.0      -999.0      -999.0    
  91   -999.0      -999.0      -999.0      -999.0      -999.0      -999.0      -999.0      -999.0      -999.0      -999.0    
       -999.0      -999.0      -999.0      -999.0      -999.0      -999.0      -999.0      -999.0      -999.0      -999.0    
       -999.0      -999.0      -999.0      -999.0      -999.0      -999.0      -999.0      -999.0      1.0000      -999.0    
       -999.0      1.0000       1.022      1.0000      -999.0      -999.0      -999.0      1.0000      -999.0      -999.0    
       -999.0      -999.0      -999.0      -999.0      -999.0      -999.0      -999.0      -999.0      -999.0      -999.0    
       -999.0      -999.0      -999.0      -999.0      -999.0      -999.0      -999.0      -999.0      -999.0      -999.0    
       -999.0      -999.0      -999.0      -999.0      -999.0      -999.0      -999.0      -999.0      -999.0      -999.0    
       -999.0      -999.0      -999.0      -999.0      -999.0      -999.0      -999.0      -999.0      -999.0      -999.0    
       -999.0      -999.0      -999.0      -999.0      -999.0      -999.0      -999.0      -999.0      -999.0      -999.0    
       -999.0      -999.0      -999.0      -999.0      -999.0      -999.0      -999.0      -999.0      -999.0      -999.0    
  92   -999.0      -999.0      -999.0      -999.0      -999.0      -999.0      -999.0      -999.0      -999.0      -999.0    
       -999.0      -999.0      -999.0      -999.0      -999.0      -999.0      -999.0      -999.0      -999.0      -999.0    
       -999.0      -999.0      -999.0      -999.0      -999.0      -999.0      -999.0      -999.0      -999.0      -999.0    
       1.0000      1.0000       1.014      1.0000      -999.0      -999.0      -999.0      -999.0      -999.0      -999.0    
       -999.0      -999.0      -999.0      -999.0      -999.0      -999.0      -999.0      -999.0      -999.0      -999.0    
       -999.0      -999.0      -999.0      -999.0      -999.0      -999.0      -999.0      -999.0      -999.0      -999.0    
       -999.0      -999.0      -999.0      -999.0      -999.0      -999.0      -999.0      -999.0      -999.0      -999.0    
       -999.0      -999.0      -999.0      -999.0      -999.0      -999.0      -999.0      -999.0      -999.0      -999.0    
       -999.0      -999.0      -999.0      -999.0      -999.0      -999.0      -999.0      -999.0      -999.0      -999.0    
       -999.0      -999.0      -999.0      -999.0      -999.0      -999.0      -999.0      -999.0      -999.0      -999.0    
  93   -999.0      -999.0      -999.0      -999.0      -999.0      -999.0      -999.0      -999.0      -999.0      -999.0    
       -999.0      -999.0      -999.0      -999.0      -999.0      -999.0      -999.0      -999.0      -999.0      -999.0    
       -999.0      -999.0      -999.0      -999.0      -999.0      -999.0      -999.0      -999.0      -999.0      -999.0    
       1.0000      1.0000      1.0000      1.0000      -999.0      -999.0      -999.0      -999.0      -999.0      -999.0    
       -999.0      -999.0      -999.0      -999.0      -999.0      -999.0      -999.0      -999.0      -999.0      -999.0    
       -999.0      -999.0      -999.0      -999.0      -999.0      -999.0      -999.0      -999.0      -999.0      -999.0    
       -999.0      -999.0      -999.0      -999.0      -999.0      -999.0      -999.0      -999.0      -999.0      -999.0    
       -999.0      -999.0      -999.0      -999.0      -999.0      -999.0      -999.0      -999.0      -999.0      -999.0    
       -999.0      -999.0      -999.0      -999.0      -999.0      -999.0      -999.0      -999.0      -999.0      -999.0    
       -999.0      -999.0      -999.0      -999.0      -999.0      -999.0      -999.0      -999.0      -999.0      -999.0    
  94   -999.0      -999.0      -999.0      -999.0      -999.0      -999.0      -999.0      -999.0      -999.0      -999.0    
       -999.0      -999.0      -999.0      -999.0      -999.0      -999.0      -999.0      -999.0      -999.0      -999.0    
       -999.0      -999.0      -999.0      -999.0      -999.0      -999.0      -999.0      -999.0      -999.0      -999.0    
       -999.0      1.0000      1.0000      -999.0      -999.0      -999.0      -999.0      -999.0      -999.0      -999.0    
       -999.0      -999.0      -999.0      -999.0      -999.0      -999.0      -999.0      -999.0      -999.0      -999.0    
       -999.0      -999.0      -999.0      -999.0      -999.0      -999.0      -999.0      -999.0      -999.0      -999.0    
       -999.0      -999.0      -999.0      -999.0      -999.0      -999.0      -999.0      -999.0      -999.0      -999.0    
       -999.0      -999.0      -999.0      -999.0      -999.0      -999.0      -999.0      -999.0      -999.0      -999.0    
       -999.0      -999.0      -999.0      -999.0      -999.0      -999.0      -999.0      -999.0      -999.0      -999.0    
       -999.0      -999.0      -999.0      -999.0      -999.0      -999.0      -999.0      -999.0      -999.0      -999.0    
  95   -999.0      -999.0      -999.0      -999.0      -999.0      -999.0      -999.0      -999.0      -999.0      -999.0    
       -999.0      -999.0      -999.0      -999.0      -999.0      -999.0      -999.0      -999.0      -999.0      -999.0    
       -999.0      -999.0      -999.0      -999.0      -999.0      -999.0      -999.0      -999.0      -999.0      -999.0    
       -999.0      1.0000      1.0000      -999.0      -999.0      -999.0      -999.0      -999.0      -999.0      -999.0    
       -999.0      -999.0      -999.0      -999.0      -999.0      -999.0      -999.0      -999.0      -999.0      -999.0    
       -999.0      -999.0      -999.0      -999.0      -999.0      -999.0      -999.0      -999.0      -999.0      -999.0    
       -999.0      -999.0      -999.0      -999.0      -999.0      -999.0      -999.0      -999.0      -999.0      -999.0    
       -999.0      -999.0      -999.0      -999.0      -999.0      -999.0      -999.0      -999.0      -999.0      -999.0    
       -999.0      -999.0      -999.0      -999.0      -999.0      -999.0      -999.0      -999.0      -999.0      -999.0    
       -999.0      -999.0      -999.0      -999.0      -999.0      -999.0      -999.0      -999.0      -999.0      -999.0    
  96   -999.0      -999.0      -999.0      -999.0      -999.0      -999.0      -999.0      -999.0      -999.0      -999.0    
       -999.0      -999.0      -999.0      -999.0      -999.0      -999.0      -999.0      -999.0      -999.0      -999.0    
       -999.0      -999.0      -999.0      -999.0      -999.0      -999.0      -999.0      -999.0      -999.0      -999.0    
       -999.0      1.0000      1.0000      -999.0      -999.0      -999.0      -999.0      -999.0      -999.0      -999.0    
       -999.0      -999.0      -999.0      -999.0      -999.0      -999.0      -999.0      -999.0      -999.0      -999.0    
       -999.0      -999.0      -999.0      -999.0      -999.0      -999.0      -999.0      -999.0      -999.0      -999.0    
       -999.0      -999.0      -999.0      -999.0      -999.0      -999.0      -999.0      -999.0      -999.0      -999.0    
       -999.0      -999.0      -999.0      -999.0      -999.0      -999.0      -999.0      -999.0      -999.0      -999.0    
       -999.0      -999.0      -999.0      -999.0      -999.0      -999.0      -999.0      -999.0      -999.0      -999.0    
       -999.0      -999.0      -999.0      -999.0      -999.0      -999.0      -999.0      -999.0      -999.0      -999.0    
  97   -999.0      -999.0      -999.0      -999.0      -999.0      -999.0      -999.0      -999.0      -999.0      -999.0    
       -999.0      -999.0      -999.0      -999.0      -999.0      -999.0      -999.0      -999.0      -999.0      -999.0    
       -999.0      -999.0      -999.0      -999.0      -999.0      -999.0      -999.0      -999.0      -999.0      -999.0    
       -999.0      -999.0      -999.0      -999.0      -999.0      -999.0      -999.0      -999.0      -999.0      -999.0    
       -999.0      -999.0      -999.0      -999.0      -999.0      -999.0      -999.0      -999.0      -999.0      -999.0    
       -999.0      -999.0      -999.0      -999.0      -999.0      -999.0      -999.0      -999.0      -999.0      -999.0    
       -999.0      -999.0      -999.0      -999.0      -999.0      -999.0      -999.0      -999.0      -999.0      -999.0    
       -999.0      -999.0      -999.0      -999.0      -999.0      -999.0      -999.0      -999.0      -999.0      -999.0    
       -999.0      -999.0      -999.0      -999.0      -999.0      -999.0      -999.0      -999.0      -999.0      -999.0    
       -999.0      -999.0      -999.0      -999.0      -999.0      -999.0      -999.0      -999.0      -999.0      -999.0    
  98   -999.0      -999.0      -999.0      -999.0      -999.0      -999.0      -999.0      -999.0      -999.0      -999.0    
       -999.0      -999.0      -999.0      -999.0      -999.0      -999.0      -999.0      -999.0      -999.0      -999.0    
       -999.0      -999.0      -999.0      -999.0      -999.0      -999.0      -999.0      -999.0      -999.0      -999.0    
       -999.0      -999.0      -999.0      -999.0      -999.0      -999.0      -999.0      -999.0      -999.0      -999.0    
       -999.0      -999.0      -999.0      -999.0      -999.0      -999.0      -999.0      -999.0      -999.0      -999.0    
       -999.0      -999.0      -999.0      -999.0      -999.0      -999.0      -999.0      -999.0      -999.0      -999.0    
       -999.0      -999.0      -999.0      -999.0      -999.0      -999.0      -999.0      -999.0      -999.0      -999.0    
       -999.0      -999.0      -999.0      -999.0      -999.0      -999.0      -999.0      -999.0      -999.0      -999.0    
       -999.0      -999.0      -999.0      -999.0      -999.0      -999.0      -999.0      -999.0      -999.0      -999.0    
       -999.0      -999.0      -999.0      -999.0      -999.0      -999.0      -999.0      -999.0      -999.0      -999.0    
  99   -999.0      -999.0      -999.0      -999.0      -999.0      -999.0      -999.0      -999.0      -999.0      -999.0    
       -999.0      -999.0      -999.0      -999.0      -999.0      -999.0      -999.0      -999.0      -999.0      -999.0    
       -999.0      -999.0      -999.0      -999.0      -999.0      -999.0      -999.0      -999.0      -999.0      -999.0    
       -999.0      -999.0      -999.0      -999.0      -999.0      -999.0      -999.0      -999.0      -999.0      -999.0    
       -999.0      -999.0      -999.0      -999.0      -999.0      -999.0      -999.0      -999.0      -999.0      -999.0    
       -999.0      -999.0      -999.0      -999.0      -999.0      -999.0      -999.0      -999.0      -999.0      -999.0    
       -999.0      -999.0      -999.0      -999.0      -999.0      -999.0      -999.0      -999.0      -999.0      -999.0    
       -999.0      -999.0      -999.0      -999.0      -999.0      -999.0      -999.0      -999.0      -999.0      -999.0    
       -999.0      -999.0      -999.0      -999.0      -999.0      -999.0      -999.0      -999.0      -999.0      -999.0    
       -999.0      -999.0      -999.0      -999.0      -999.0      -999.0      -999.0      -999.0      -999.0      -999.0    
 100   -999.0      -999.0      -999.0      -999.0      -999.0      -999.0      -999.0      -999.0      -999.0      -999.0    
       -999.0      -999.0      -999.0      -999.0      -999.0      -999.0      -999.0      -999.0      -999.0      -999.0    
       -999.0      -999.0      -999.0      -999.0      -999.0      -999.0      -999.0      -999.0      -999.0      -999.0    
       -999.0      -999.0      -999.0      -999.0      -999.0      -999.0      -999.0      -999.0      -999.0      -999.0    
       -999.0      -999.0      -999.0      -999.0      -999.0      -999.0      -999.0      -999.0      -999.0      -999.0    
       -999.0      -999.0      -999.0      -999.0      -999.0      -999.0      -999.0      -999.0      -999.0      -999.0    
       -999.0      -999.0      -999.0      -999.0      -999.0      -999.0      -999.0      -999.0      -999.0      -999.0    
       -999.0      -999.0      -999.0      -999.0      -999.0      -999.0      -999.0      -999.0      -999.0      -999.0    
       -999.0      -999.0      -999.0      -999.0      -999.0      -999.0      -999.0      -999.0      -999.0      -999.0    
       -999.0      -999.0      -999.0      -999.0      -999.0      -999.0      -999.0      -999.0      -999.0      -999.0    

 HEAD WILL BE SAVED ON UNIT   51 AT END OF TIME STEP    1, STRESS PERIOD    1
1
  VOLUMETRIC BUDGET FOR ENTIRE MODEL AT END OF TIME STEP    1, STRESS PERIOD   1
  ------------------------------------------------------------------------------

     CUMULATIVE VOLUMES      L**3       RATES FOR THIS TIME STEP      L**3/T
     ------------------                 ------------------------

           IN:                                      IN:
           ---                                      ---
             STORAGE =           0.0000               STORAGE =           0.0000
       CONSTANT HEAD =       30366.6582         CONSTANT HEAD =       30366.6582
               WELLS =           0.0000                 WELLS =           0.0000
            RECHARGE =      433445.9062              RECHARGE =      433445.9062

            TOTAL IN =      463812.5625              TOTAL IN =      463812.5625

          OUT:                                     OUT:
          ----                                     ----
             STORAGE =           0.0000               STORAGE =           0.0000
       CONSTANT HEAD =      215714.2031         CONSTANT HEAD =      215714.2031
               WELLS =      248000.0000                 WELLS =      248000.0000
            RECHARGE =          98.3521              RECHARGE =          98.3521

           TOTAL OUT =      463812.5625             TOTAL OUT =      463812.5625

            IN - OUT =           0.0000              IN - OUT =           0.0000

 PERCENT DISCREPANCY =           0.00     PERCENT DISCREPANCY =           0.00






         TIME SUMMARY AT END OF TIME STEP    1 IN STRESS PERIOD    1
                    SECONDS     MINUTES      HOURS       DAYS        YEARS
                    -----------------------------------------------------------
   TIME STEP LENGTH  86400.      1440.0      24.000     1.00000     2.73785E-03
 STRESS PERIOD TIME  86400.      1440.0      24.000     1.00000     2.73785E-03
         TOTAL TIME  86400.      1440.0      24.000     1.00000     2.73785E-03
1

 HEAD AND DRAWDOWN OBSERVATIONS
 OBSERVATION       OBSERVED           SIMULATED
   NAME              VALUE              VALUE             DIFFERENCE
 --------------------------------------------------------------------
 hed1            6.5461001396       0.88082599640        5.6652741432    
 hed2            6.7213997841        4.0516753197        2.6697244644    
 hed3            5.3123002052        1.9633293152        3.3489708900    
 hed4            1.6268999577       0.97411775589       0.65278220177    
 hed5            1.5520000458       0.96067333221       0.59132671356    
 hed6            1.1732000113       0.77811741829       0.39508259296    
 hed7            4.3852000237       0.63608646393        3.7491135597    
 hed8            1.2960000038       0.94765102863       0.34834897518    
 hed9            3.0701000690        1.7278300524        1.3422700167    
 hed10           1.2247999907        1.0778121948       0.14698779583    
 hed11           6.3680000305       0.62212491035        5.7458753586    
 hed12           6.4444999695       0.92900562286        5.5154943466    
 hed13           6.6686000824       0.91773223877        5.7508678436    
 hed14           3.3817999363       0.22929440439        3.1525056362    
 hed15           1.1183999777       0.79841530323       0.31998467445    
 hed16           2.6082999706        2.0323586464       0.57594132423    
 hed17           1.1607999802       0.62023520470       0.54056477547    

 HEAD/DRAWDOWN SUM OF SQUARED DIFFERENCE:    1.74544E+02

 Run end date and time (yyyy/mm/dd hh:mm:ss): 2018/04/26 16:55:20
 Elapsed run time:  0.047 Seconds

