                                  MODFLOW-2005     
      U.S. GEOLOGICAL SURVEY MODULAR FINITE-DIFFERENCE GROUND-WATER FLOW MODEL
                            VERSION 1.11.00 8/8/2013

 LIST FILE: test2.list
                         UNIT    2

 OPENING test2.dis
 FILE TYPE:DIS   UNIT   11   STATUS:OLD    
 FORMAT:FORMATTED              ACCESS:SEQUENTIAL          

 OPENING test2.bas
 FILE TYPE:BAS6   UNIT   13   STATUS:OLD    
 FORMAT:FORMATTED              ACCESS:SEQUENTIAL          

 OPENING test2.lpf
 FILE TYPE:LPF   UNIT   15   STATUS:OLD    
 FORMAT:FORMATTED              ACCESS:SEQUENTIAL          

 OPENING test2.rch
 FILE TYPE:RCH   UNIT   19   STATUS:OLD    
 FORMAT:FORMATTED              ACCESS:SEQUENTIAL          

 OPENING test2.wel
 FILE TYPE:WEL   UNIT   20   STATUS:OLD    
 FORMAT:FORMATTED              ACCESS:SEQUENTIAL          

 OPENING test2.pcg
 FILE TYPE:PCG   UNIT   27   STATUS:OLD    
 FORMAT:FORMATTED              ACCESS:SEQUENTIAL          

 OPENING test2.hob
 FILE TYPE:HOB   UNIT   39   STATUS:OLD    
 FORMAT:FORMATTED              ACCESS:SEQUENTIAL          

 OPENING test2.oc
 FILE TYPE:OC   UNIT   14   STATUS:OLD    
 FORMAT:FORMATTED              ACCESS:SEQUENTIAL          

 OPENING test2.cbc
 FILE TYPE:DATA(BINARY)   UNIT   40   STATUS:REPLACE
 FORMAT:BINARY                 ACCESS:SEQUENTIAL          

 OPENING test2.hob.out
 FILE TYPE:DATA   UNIT    7   STATUS:UNKNOWN
 FORMAT:FORMATTED              ACCESS:SEQUENTIAL          

 OPENING test2.hds
 FILE TYPE:DATA(BINARY)   UNIT   51   STATUS:REPLACE
 FORMAT:BINARY                 ACCESS:SEQUENTIAL          

 BAS -- BASIC PACKAGE, VERSION 7, 5/2/2005 INPUT READ FROM UNIT   13
 
 MODFLOW was compiled using mixed precision
 Precision of REAL variables:           6
 Precision of DOUBLE PRECISION variables:          15

 DISCRETIZATION INPUT DATA READ FROM UNIT   11
 # DIS package for  MODFLOW-2005, generated by Flopy.
    2 LAYERS       150 ROWS       150 COLUMNS
    1 STRESS PERIOD(S) IN SIMULATION
 MODEL TIME UNIT IS DAYS
 MODEL LENGTH UNIT IS METERS
  Confining bed flag for each layer:
   0   0



                               DELR
 READING ON UNIT   11 WITH FORMAT: (150E15.6)          



                               DELC
 READING ON UNIT   11 WITH FORMAT: (150E15.6)          



           TOP ELEVATION OF LAYER 1
 READING ON UNIT   11 WITH FORMAT: (FREE)              



             MODEL LAYER BOTTOM EL. FOR LAYER   1
 READING ON UNIT   11 WITH FORMAT: (FREE)              



             MODEL LAYER BOTTOM EL. FOR LAYER   2
 READING ON UNIT   11 WITH FORMAT: (FREE)              


 STRESS PERIOD     LENGTH       TIME STEPS     MULTIPLIER FOR DELT    SS FLAG
 ----------------------------------------------------------------------------
        1        1.0000000          1                    1.000         SS

 STEADY-STATE SIMULATION



 
 # BAS6 package for  MODFLOW-2005, generated by Flopy.                           
 THE FREE FORMAT OPTION HAS BEEN SELECTED



                     BOUNDARY ARRAY FOR LAYER   1
 READING ON UNIT   13 WITH FORMAT: (FREE)              



                     BOUNDARY ARRAY FOR LAYER   2
 READING ON UNIT   13 WITH FORMAT: (FREE)              

 AQUIFER HEAD WILL BE SET TO  -999.00     AT ALL NO-FLOW NODES (IBOUND=0).



                       INITIAL HEAD FOR LAYER   1
 READING ON UNIT   13 WITH FORMAT: (FREE)              



                       INITIAL HEAD FOR LAYER   2
 READING ON UNIT   13 WITH FORMAT: (FREE)              
 # OC package for  MODFLOW-2005, generated by Flopy.

 OUTPUT CONTROL IS SPECIFIED ONLY AT TIME STEPS FOR WHICH OUTPUT IS DESIRED
 COMPACT CELL-BY-CELL BUDGET FILES WILL BE WRITTEN
 AUXILIARY DATA WILL BE SAVED IN CELL-BY-CELL BUDGET FILES
 HEAD PRINT FORMAT CODE IS   0    DRAWDOWN PRINT FORMAT CODE IS   0
 HEADS WILL BE SAVED ON UNIT   51    DRAWDOWNS WILL BE SAVED ON UNIT    0

 LPF -- LAYER-PROPERTY FLOW PACKAGE, VERSION 7, 5/2/2005
         INPUT READ FROM UNIT   15
 # LPF package for  MODFLOW-2005, generated by Flopy.
 CELL-BY-CELL FLOWS WILL BE SAVED ON UNIT   40
 HEAD AT CELLS THAT CONVERT TO DRY=  -888.00    
 No named parameters

   LAYER FLAGS:
 LAYER       LAYTYP        LAYAVG         CHANI        LAYVKA        LAYWET
 ---------------------------------------------------------------------------
    1             1             0    -1.000E+00             1             0
    2             1             0    -1.000E+00             1             0

   INTERPRETATION OF LAYER FLAGS:
                        INTERBLOCK     HORIZONTAL    DATA IN
         LAYER TYPE   TRANSMISSIVITY   ANISOTROPY   ARRAY VKA   WETTABILITY
 LAYER      (LAYTYP)      (LAYAVG)       (CHANI)      (LAYVKA)      (LAYWET)
 ---------------------------------------------------------------------------
    1   CONVERTIBLE      HARMONIC      VARIABLE    ANISOTROPY  NON-WETTABLE
    2   CONVERTIBLE      HARMONIC      VARIABLE    ANISOTROPY  NON-WETTABLE

 WETTING CAPABILITY IS NOT ACTIVE IN ANY LAYER



              HYD. COND. ALONG ROWS FOR LAYER   1
 READING ON UNIT   15 WITH FORMAT: (FREE)              

   HORIZ. ANI. (COL./ROW) =  1.000000     FOR LAYER   1



            HORIZ. TO VERTICAL ANI. FOR LAYER   1
 READING ON UNIT   15 WITH FORMAT: (FREE)              



              HYD. COND. ALONG ROWS FOR LAYER   2
 READING ON UNIT   15 WITH FORMAT: (FREE)              

   HORIZ. ANI. (COL./ROW) =  1.000000     FOR LAYER   2



            HORIZ. TO VERTICAL ANI. FOR LAYER   2
 READING ON UNIT   15 WITH FORMAT: (FREE)              

 WEL -- WELL PACKAGE, VERSION 7, 5/2/2005 INPUT READ FROM UNIT   20
 # WEL package for  MODFLOW-2005, generated by Flopy.
 No named parameters
 MAXIMUM OF     24 ACTIVE WELLS AT ONE TIME
 CELL-BY-CELL FLOWS WILL BE SAVED ON UNIT   40
 AUXILIARY WELL VARIABLE: IFACE           
 AUXILIARY WELL VARIABLE: QFACT           
 AUXILIARY WELL VARIABLE: CELLGRP         


     0 Well parameters

 RCH -- RECHARGE PACKAGE, VERSION 7, 5/2/2005 INPUT READ FROM UNIT   19
 # RCH package for  MODFLOW-2005, generated by Flopy.
 No named parameters
 OPTION 3 -- RECHARGE TO HIGHEST ACTIVE NODE IN EACH VERTICAL COLUMN
 CELL-BY-CELL FLOWS WILL BE SAVED ON UNIT   40


     0 Recharge parameters

 PCG -- CONJUGATE-GRADIENT SOLUTION PACKAGE, VERSION 7, 5/2/2005
 # PCG package for  MODFLOW-2005, generated by Flopy.
 MAXIMUM OF     50 CALLS OF SOLUTION ROUTINE
 MAXIMUM OF     30 INTERNAL ITERATIONS PER CALL TO SOLUTION ROUTINE
 MATRIX PRECONDITIONING TYPE :    1



                                    SOLUTION BY THE CONJUGATE-GRADIENT METHOD
                                   -------------------------------------------
                    MAXIMUM NUMBER OF CALLS TO PCG ROUTINE =       50
                        MAXIMUM ITERATIONS PER CALL TO PCG =       30
                               MATRIX PRECONDITIONING TYPE =        1
        RELAXATION FACTOR (ONLY USED WITH PRECOND. TYPE 1) =    0.10000E+01
 PARAMETER OF POLYNOMIAL PRECOND. = 2 (2) OR IS CALCULATED :        0
                         HEAD CHANGE CRITERION FOR CLOSURE =    0.10000E-04
                     RESIDUAL CHANGE CRITERION FOR CLOSURE =    0.10000E-04
            PCG HEAD AND RESIDUAL CHANGE PRINTOUT INTERVAL =      999
     PRINTING FROM SOLVER IS LIMITED(1) OR SUPPRESSED (>1) =        3
                            STEADY-STATE DAMPING PARAMETER =    0.10000E+01
                               TRANSIENT DAMPING PARAMETER =    0.10000E+01

 OBS2BAS7 -- HEAD OBSERVATIONS, VERSION 2.0, 2/28/2006
 INPUT READ FROM UNIT  39
 # HOB package for  MODFLOW-2005, generated by Flopy.

 NUMBER OF HEADS....................................:  102
   NUMBER OF MULTILAYER HEADS.......................:    0
   MAXIMUM NUMBER OF LAYERS FOR MULTILAYER HEADS....:    0
 HEAD OBSERVATIONS WILL BE SAVED ON UNIT............:    7
 SIMULATED EQUIVALENT HEAD AT DRY CELLS WILL BE:   -777.000    

 OBSERVED HEAD DATA -- TIME OFFSETS ARE MULTIPLIED BY:  1.00000    

                    REFER.
       OBSERVATION  STRESS    TIME
  OBS#    NAME      PERIOD   OFFSET    OBSERVATION
     1 hed1             1    0.000       313.0    
 Observation within a steady-state time step has been moved to the end of the time step.
     2 hed2             1    0.000       193.7    
 Observation within a steady-state time step has been moved to the end of the time step.
     3 hed3             1    0.000       164.9    
 Observation within a steady-state time step has been moved to the end of the time step.
     4 hed4             1    0.000       153.6    
 Observation within a steady-state time step has been moved to the end of the time step.
     5 hed5             1    0.000       22.49    
 Observation within a steady-state time step has been moved to the end of the time step.
     6 hed6             1    0.000       19.87    
 Observation within a steady-state time step has been moved to the end of the time step.
     7 hed7             1    0.000       12.80    
 Observation within a steady-state time step has been moved to the end of the time step.
     8 hed8             1    0.000       11.28    
 Observation within a steady-state time step has been moved to the end of the time step.
     9 hed9             1    0.000       10.91    
 Observation within a steady-state time step has been moved to the end of the time step.
    10 hed10            1    0.000       10.06    
 Observation within a steady-state time step has been moved to the end of the time step.
    11 hed11            1    0.000       9.815    
 Observation within a steady-state time step has been moved to the end of the time step.
    12 hed12            1    0.000       9.754    
 Observation within a steady-state time step has been moved to the end of the time step.
    13 hed13            1    0.000       9.571    
 Observation within a steady-state time step has been moved to the end of the time step.
    14 hed14            1    0.000       9.510    
 Observation within a steady-state time step has been moved to the end of the time step.
    15 hed15            1    0.000       9.449    
 Observation within a steady-state time step has been moved to the end of the time step.
    16 hed16            1    0.000       9.449    
 Observation within a steady-state time step has been moved to the end of the time step.
    17 hed17            1    0.000       9.449    
 Observation within a steady-state time step has been moved to the end of the time step.
    18 hed18            1    0.000       9.418    
 Observation within a steady-state time step has been moved to the end of the time step.
    19 hed19            1    0.000       9.388    
 Observation within a steady-state time step has been moved to the end of the time step.
    20 hed20            1    0.000       9.388    
 Observation within a steady-state time step has been moved to the end of the time step.
    21 hed21            1    0.000       9.327    
 Observation within a steady-state time step has been moved to the end of the time step.
    22 hed22            1    0.000       9.266    
 Observation within a steady-state time step has been moved to the end of the time step.
    23 hed23            1    0.000       9.235    
 Observation within a steady-state time step has been moved to the end of the time step.
    24 hed24            1    0.000       9.205    
 Observation within a steady-state time step has been moved to the end of the time step.
    25 hed25            1    0.000       9.175    
 Observation within a steady-state time step has been moved to the end of the time step.
    26 hed26            1    0.000       9.175    
 Observation within a steady-state time step has been moved to the end of the time step.
    27 hed27            1    0.000       9.144    
 Observation within a steady-state time step has been moved to the end of the time step.
    28 hed28            1    0.000       9.144    
 Observation within a steady-state time step has been moved to the end of the time step.
    29 hed29            1    0.000       9.144    
 Observation within a steady-state time step has been moved to the end of the time step.
    30 hed30            1    0.000       9.083    
 Observation within a steady-state time step has been moved to the end of the time step.
    31 hed31            1    0.000       9.083    
 Observation within a steady-state time step has been moved to the end of the time step.
    32 hed32            1    0.000       9.053    
 Observation within a steady-state time step has been moved to the end of the time step.
    33 hed33            1    0.000       9.022    
 Observation within a steady-state time step has been moved to the end of the time step.
    34 hed34            1    0.000       9.022    
 Observation within a steady-state time step has been moved to the end of the time step.
    35 hed35            1    0.000       9.022    
 Observation within a steady-state time step has been moved to the end of the time step.
    36 hed36            1    0.000       8.961    
 Observation within a steady-state time step has been moved to the end of the time step.
    37 hed37            1    0.000       8.870    
 Observation within a steady-state time step has been moved to the end of the time step.
    38 hed38            1    0.000       8.870    
 Observation within a steady-state time step has been moved to the end of the time step.
    39 hed39            1    0.000       8.839    
 Observation within a steady-state time step has been moved to the end of the time step.
    40 hed40            1    0.000       8.778    
 Observation within a steady-state time step has been moved to the end of the time step.
    41 hed41            1    0.000       8.778    
 Observation within a steady-state time step has been moved to the end of the time step.
    42 hed42            1    0.000       8.687    
 Observation within a steady-state time step has been moved to the end of the time step.
    43 hed43            1    0.000       8.656    
 Observation within a steady-state time step has been moved to the end of the time step.
    44 hed44            1    0.000       8.626    
 Observation within a steady-state time step has been moved to the end of the time step.
    45 hed45            1    0.000       8.595    
 Observation within a steady-state time step has been moved to the end of the time step.
    46 hed46            1    0.000       8.595    
 Observation within a steady-state time step has been moved to the end of the time step.
    47 hed47            1    0.000       8.595    
 Observation within a steady-state time step has been moved to the end of the time step.
    48 hed48            1    0.000       8.534    
 Observation within a steady-state time step has been moved to the end of the time step.
    49 hed49            1    0.000       8.473    
 Observation within a steady-state time step has been moved to the end of the time step.
    50 hed50            1    0.000       8.473    
 Observation within a steady-state time step has been moved to the end of the time step.
    51 hed51            1    0.000       8.473    
 Observation within a steady-state time step has been moved to the end of the time step.
    52 hed52            1    0.000       8.443    
 Observation within a steady-state time step has been moved to the end of the time step.
    53 hed53            1    0.000       8.443    
 Observation within a steady-state time step has been moved to the end of the time step.
    54 hed54            1    0.000       8.413    
 Observation within a steady-state time step has been moved to the end of the time step.
    55 hed55            1    0.000       8.413    
 Observation within a steady-state time step has been moved to the end of the time step.
    56 hed56            1    0.000       8.382    
 Observation within a steady-state time step has been moved to the end of the time step.
    57 hed57            1    0.000       8.291    
 Observation within a steady-state time step has been moved to the end of the time step.
    58 hed58            1    0.000       8.291    
 Observation within a steady-state time step has been moved to the end of the time step.
    59 hed59            1    0.000       8.260    
 Observation within a steady-state time step has been moved to the end of the time step.
    60 hed60            1    0.000       8.230    
 Observation within a steady-state time step has been moved to the end of the time step.
    61 hed61            1    0.000       8.199    
 Observation within a steady-state time step has been moved to the end of the time step.
    62 hed62            1    0.000       8.077    
 Observation within a steady-state time step has been moved to the end of the time step.
    63 hed63            1    0.000       8.047    
 Observation within a steady-state time step has been moved to the end of the time step.
    64 hed64            1    0.000       7.955    
 Observation within a steady-state time step has been moved to the end of the time step.
    65 hed65            1    0.000       7.925    
 Observation within a steady-state time step has been moved to the end of the time step.
    66 hed66            1    0.000       7.925    
 Observation within a steady-state time step has been moved to the end of the time step.
    67 hed67            1    0.000       7.925    
 Observation within a steady-state time step has been moved to the end of the time step.
    68 hed68            1    0.000       7.894    
 Observation within a steady-state time step has been moved to the end of the time step.
    69 hed69            1    0.000       7.894    
 Observation within a steady-state time step has been moved to the end of the time step.
    70 hed70            1    0.000       7.894    
 Observation within a steady-state time step has been moved to the end of the time step.
    71 hed71            1    0.000       7.864    
 Observation within a steady-state time step has been moved to the end of the time step.
    72 hed72            1    0.000       7.803    
 Observation within a steady-state time step has been moved to the end of the time step.
    73 hed73            1    0.000       7.803    
 Observation within a steady-state time step has been moved to the end of the time step.
    74 hed74            1    0.000       7.589    
 Observation within a steady-state time step has been moved to the end of the time step.
    75 hed75            1    0.000       7.193    
 Observation within a steady-state time step has been moved to the end of the time step.
    76 hed76            1    0.000       7.193    
 Observation within a steady-state time step has been moved to the end of the time step.
    77 hed77            1    0.000       7.102    
 Observation within a steady-state time step has been moved to the end of the time step.
    78 hed78            1    0.000       7.071    
 Observation within a steady-state time step has been moved to the end of the time step.
    79 hed79            1    0.000       6.858    
 Observation within a steady-state time step has been moved to the end of the time step.
    80 hed80            1    0.000       6.855    
 Observation within a steady-state time step has been moved to the end of the time step.
    81 hed81            1    0.000       6.797    
 Observation within a steady-state time step has been moved to the end of the time step.
    82 hed82            1    0.000       6.675    
 Observation within a steady-state time step has been moved to the end of the time step.
    83 hed83            1    0.000       6.587    
 Observation within a steady-state time step has been moved to the end of the time step.
    84 hed84            1    0.000       6.401    
 Observation within a steady-state time step has been moved to the end of the time step.
    85 hed85            1    0.000       6.200    
 Observation within a steady-state time step has been moved to the end of the time step.
    86 hed86            1    0.000       5.852    
 Observation within a steady-state time step has been moved to the end of the time step.
    87 hed87            1    0.000       5.843    
 Observation within a steady-state time step has been moved to the end of the time step.
    88 hed88            1    0.000       5.791    
 Observation within a steady-state time step has been moved to the end of the time step.
    89 hed89            1    0.000       4.877    
 Observation within a steady-state time step has been moved to the end of the time step.
    90 hed90            1    0.000       4.084    
 Observation within a steady-state time step has been moved to the end of the time step.
    91 hed91            1    0.000       3.950    
 Observation within a steady-state time step has been moved to the end of the time step.
    92 hed92            1    0.000       3.932    
 Observation within a steady-state time step has been moved to the end of the time step.
    93 hed93            1    0.000       1.829    
 Observation within a steady-state time step has been moved to the end of the time step.
    94 hed94            1    0.000       1.128    
 Observation within a steady-state time step has been moved to the end of the time step.
    95 hed95            1    0.000       1.097    
 Observation within a steady-state time step has been moved to the end of the time step.
    96 hed96            1    0.000       1.097    
 Observation within a steady-state time step has been moved to the end of the time step.
    97 hed97            1    0.000      0.9144    
 Observation within a steady-state time step has been moved to the end of the time step.
    98 hed98            1    0.000      0.8839    
 Observation within a steady-state time step has been moved to the end of the time step.
    99 hed99            1    0.000      0.4572    
 Observation within a steady-state time step has been moved to the end of the time step.
   100 hed100           1    0.000      0.4572    
 Observation within a steady-state time step has been moved to the end of the time step.
   101 hed101           1    0.000      0.1219    
 Observation within a steady-state time step has been moved to the end of the time step.
   102 hed102           1    0.000      0.9140E-01
 Observation within a steady-state time step has been moved to the end of the time step.

                                                     HEAD CHANGE
                                                      REFERENCE
        OBSERVATION                   ROW     COL    OBSERVATION
  OBS#     NAME       LAY  ROW  COL  OFFSET  OFFSET   (IF > 0)
     1  hed1            1   29  127   0.263  -0.163        0
     2  hed2            1   22   92   0.145  -0.314        0
     3  hed3            1   64  134   0.203   0.106        0
     4  hed4            1   42  108   0.204   0.206        0
     5  hed5            2   68  125  -0.077  -0.187        0
     6  hed6            2   87  117  -0.448   0.294        0
     7  hed7            2  105   96  -0.440   0.057        0
     8  hed8            1   96   97  -0.199   0.167        0
     9  hed9            2  102   96   0.204   0.041        0
    10  hed10           1   96   95   0.159  -0.464        0
    11  hed11           1   65   43  -0.409   0.119        0
    12  hed12           2   97   72   0.346   0.012        0
    13  hed13           2   78   58  -0.395  -0.459        0
    14  hed14           2   67   55  -0.143  -0.164        0
    15  hed15           1   78   78   0.115   0.319        0
    16  hed16           2   99   77  -0.343  -0.297        0
    17  hed17           2  107   86  -0.342   0.122        0
    18  hed18           2   65   45  -0.084  -0.416        0
    19  hed19           2   98   66  -0.269  -0.131        0
    20  hed20           2  104   94   0.238   0.298        0
    21  hed21           2  102   90  -0.083  -0.106        0
    22  hed22           1   70   52  -0.094   0.223        0
    23  hed23           2  106   95   0.254  -0.395        0
    24  hed24           2  102   61   0.147  -0.368        0
    25  hed25           1   71   60  -0.142  -0.455        0
    26  hed26           2   82   58   0.308   0.450        0
    27  hed27           1  104   93   0.252  -0.457        0
    28  hed28           2  106   96   0.244  -0.225        0
    29  hed29           2   95   66  -0.367   0.229        0
    30  hed30           2  107   89  -0.363  -0.245        0
    31  hed31           2  107   93  -0.398   0.144        0
    32  hed32           2  105   90   0.284  -0.376        0
    33  hed33           2   81   63  -0.074   0.123        0
    34  hed34           1  105   79   0.035  -0.499        0
    35  hed35           2  110   95  -0.047  -0.077        0
    36  hed36           2   68   44  -0.385  -0.276        0
    37  hed37           2  102   67  -0.242   0.360        0
    38  hed38           2  104   98  -0.499  -0.020        0
    39  hed39           2  100   73  -0.305  -0.094        0
    40  hed40           2   66   53   0.197   0.076        0
    41  hed41           2   70   52  -0.094   0.223        0
    42  hed42           2   93   71   0.187   0.064        0
    43  hed43           2   82   54   0.009  -0.233        0
    44  hed44           2  103   71  -0.264   0.463        0
    45  hed45           2   84   51  -0.290   0.438        0
    46  hed46           2   83   54   0.350   0.362        0
    47  hed47           2  109   93  -0.037  -0.424        0
    48  hed48           2   97   72   0.346   0.012        0
    49  hed49           2   76   60  -0.435   0.161        0
    50  hed50           2  103   70  -0.244  -0.376        0
    51  hed51           2  102   62   0.135   0.095        0
    52  hed52           2  100   65   0.430   0.010        0
    53  hed53           2  103   99   0.188   0.267        0
    54  hed54           2  107   87  -0.014   0.294        0
    55  hed55           1  102   80  -0.005  -0.056        0
    56  hed56           2  103   91  -0.422   0.361        0
    57  hed57           2   96   62   0.412   0.349        0
    58  hed58           2  100   76  -0.327  -0.169        0
    59  hed59           2   95   71  -0.341   0.409        0
    60  hed60           2  107   83   0.018   0.198        0
    61  hed61           2   97   72   0.346   0.012        0
    62  hed62           2   93   64   0.373  -0.209        0
    63  hed63           1  106   91  -0.054   0.092        0
    64  hed64           2   70   52  -0.094   0.223        0
    65  hed65           2   62   57   0.132  -0.439        0
    66  hed66           2   70   52  -0.094   0.223        0
    67  hed67           1   93   66  -0.316  -0.165        0
    68  hed68           2   70   52  -0.094   0.223        0
    69  hed69           2   70   52  -0.094   0.223        0
    70  hed70           2  101   72   0.387  -0.254        0
    71  hed71           2  103   86   0.290   0.391        0
    72  hed72           2   74   43  -0.326   0.471        0
    73  hed73           2   70   52  -0.094   0.223        0
    74  hed74           2  101   70   0.067  -0.304        0
    75  hed75           2   97   72   0.346   0.012        0
    76  hed76           2   97   72   0.346   0.012        0
    77  hed77           2   97   72   0.346   0.012        0
    78  hed78           2   91   70   0.137   0.039        0
    79  hed79           2   98   61   0.443  -0.100        0
    80  hed80           2   54   72  -0.403   0.009        0
    81  hed81           2   57   59   0.064   0.160        0
    82  hed82           2   66   58   0.497  -0.240        0
    83  hed83           2   57   69  -0.016   0.398        0
    84  hed84           2   97   71  -0.319   0.129        0
    85  hed85           2   91   83   0.206  -0.496        0
    86  hed86           2  102   78  -0.322  -0.399        0
    87  hed87           2   99   67  -0.468  -0.218        0
    88  hed88           2  105   83   0.001  -0.109        0
    89  hed89           2   94   93  -0.187   0.349        0
    90  hed90           2   68   45   0.279  -0.101        0
    91  hed91           2   57   85  -0.143   0.489        0
    92  hed92           2   77   44  -0.304   0.369        0
    93  hed93           2  101   74   0.367   0.379        0
    94  hed94           2   94   63   0.055  -0.375        0
    95  hed95           2   96   67   0.041  -0.265        0
    96  hed96           2   94   63   0.055  -0.375        0
    97  hed97           2   97   72   0.346   0.012        0
    98  hed98           2  116   83   0.440   0.262        0
    99  hed99           2   82   57   0.322  -0.305        0
   100  hed100          2   91   64   0.013   0.361        0
   101  hed101          2   90   64  -0.331   0.059        0
   102  hed102          2   77   44  -0.304   0.369        0
1
                            STRESS PERIOD NO.    1, LENGTH =  1.0000000    
                            -----------------------------------------------

                              NUMBER OF TIME STEPS =     1

                               MULTIPLIER FOR DELT =     1.000

                            INITIAL TIME STEP SIZE =  1.0000000    

 WELL NO.  LAYER   ROW   COL   STRESS RATE         IFACE           QFACT           CELLGRP         
 --------------------------------------------------------------------------------------------------
      1      1     22     92      -431.9           0.000          1.0000          1.0000    
      2      2     57     59      -2805.           0.000          1.0000           2.000    
      3      2     57     59      -5473.           0.000          1.0000           3.000    
      4      2     54     72      -727.4           0.000          1.0000           4.000    
      5      2     57     69      -300.0           0.000          1.0000           5.000    
      6      2     76     60      -4.546           0.000          1.0000           6.000    
      7      1     70     52      -1086.           0.000          1.0000           7.000    
      8      2     70     52     -0.2271E+05       0.000          1.0000           7.000    
      9      2     68    125      -1217.           0.000          1.0000           8.000    
     10      1     67    138      -772.8           0.000          1.0000           9.000    
     11      2     99     67      -168.2           0.000          1.0000          10.000    
     12      2     95     60      -6405.           0.000          1.0000           11.00    
     13      2    104     75      -4610.           0.000          1.0000           12.00    
     14      2     93     71      -1032.           0.000          1.0000           13.00    
     15      2     97     72     -0.2798E+05       0.000          1.0000           14.00    
     16      2     91     70      -22.73           0.000          1.0000           15.00    
     17      2    105     79      -518.3           0.000          1.0000           16.00    
     18      2    104     99     -0.2870E+05       0.000          1.0000           17.00    
     19      2    103     98      -697.2           0.000          1.0000           18.00    
     20      2    109     60     -0.1236E+05       0.000          1.0000           19.00    
     21      2    109     60      -3191.           0.000          1.0000           20.00    
     22      1    117     85       0.000           0.000          1.0000           21.00    
     23      2    117     85      -1041.           0.000          1.0000           21.00    
     24      2    109     85      -913.8           0.000          1.0000           22.00    

     24 WELLS



                           RECHARGE
 READING ON UNIT   19 WITH FORMAT: (FREE)              
 
 SOLVING FOR HEAD 

 MAXIMUM HEAD CHANGE FOR EACH ITERATION (1 INDICATES THE FIRST INNER ITERATION):

    HEAD CHANGE    HEAD CHANGE    HEAD CHANGE    HEAD CHANGE    HEAD CHANGE 
   LAYER,ROW,COL  LAYER,ROW,COL  LAYER,ROW,COL  LAYER,ROW,COL  LAYER,ROW,COL
 ---------------------------------------------------------------------------
  1  -623.7      0  -643.8      0  -551.0      0  -266.8      0  -203.8    
   (  1, 59,146)  (  1, 69,139)  (  1, 68,140)  (  1, 69,139)  (  1, 70,138)
  0   90.97      0  -52.28      0  -48.45      0  -31.03      0   19.92    
   (  1, 70,137)  (  1, 59,146)  (  1, 68,140)  (  1, 72,133)  (  1, 72,133)
  0   19.88      0   15.84      0  -18.94      0  -20.02      0  -17.93    
   (  1, 71,136)  (  1, 65,143)  (  1, 65,143)  (  1, 73,130)  (  1, 74,127)
  0  -17.56      0  -21.50      0  -14.76      0  -10.64      0  -10.72    
   (  1, 69,139)  (  1, 67,141)  (  1, 69,139)  (  1, 70,137)  (  1, 66,142)
  0  -7.738      0  -8.333      0  -6.377      0  -7.509      0   3.910    
   (  1, 75,126)  (  1, 71,135)  (  1, 73,129)  (  1,107,101)  (  2,118,  4)
  0  -2.774      0   2.905      0   1.709      0  -1.885      0  -1.927    
   (  1, 99,109)  (  1,107,101)  (  1, 75,126)  (  1,107,101)  (  1,107,101)
  1  0.9090      0   1.152      0   1.139      0  0.9822      0  0.8149    
   (  1, 75,126)  (  1,107,101)  (  1,102,106)  (  1, 75,126)  (  1, 74,128)
  0  0.4522      0 -0.4760      0 -0.4023      0 -0.4217      0 -0.1873    
   (  1, 69,139)  (  1, 97,110)  (  1,103,105)  (  1,104,104)  (  1,105,103)
  0  0.2078      0 -0.2267      0 -0.1534      0  0.1169      0 -0.8245E-01
   (  1,104,104)  (  1,104,104)  (  1,104,104)  (  1,104,104)  (  1, 76,124)
  0 -0.1045      0 -0.4864E-01  0  0.6598E-01  0 -0.4787E-01  0 -0.5169E-01
   (  1,104,104)  (  1, 94,107)  (  1,104,104)  (  1, 75,126)  (  1,104,104)
  0  0.4132E-01  0  0.3907E-01  0 -0.4425E-01  0 -0.3944E-01  0 -0.5262E-01
   (  1,104,104)  (  1,104,104)  (  1,104,104)  (  1, 66,142)  (  1, 72,133)
  0 -0.3488E-01  0  0.3127E-01  0  0.2436E-01  0  0.2198E-01  0 -0.1546E-01
   (  1, 76,125)  (  1,107,101)  (  1,105,103)  (  1, 72,133)  (  1, 75,126)
  1  0.1203E-01  0  0.8691E-02  0  0.1280E-01  0  0.1305E-01  0  0.1672E-01
   (  1, 75,126)  (  1, 76,125)  (  1,101,107)  (  1, 70,138)  (  1, 76,125)
  0  0.2172E-01  0  0.3053E-01  0  0.4484E-01  0  0.5147E-01  0  0.7263E-01
   (  1, 72,133)  (  1, 66,142)  (  1, 69,139)  (  1, 68,140)  (  1, 66,142)
  0  0.1118      0  0.1336      0  0.1282      0  0.1275      0  0.1515    
   (  1, 76,124)  (  1, 77,123)  (  1, 71,134)  (  1, 88,117)  (  1,104,104)
  0  0.1526      0  0.1627      0  0.1901      0  0.2289      0  0.2984    
   (  1, 76,125)  (  1, 65,143)  (  1,104,104)  (  1,104,104)  (  1, 97,110)
  0  0.3573      0  0.5994      0  0.7433      0   1.110      0   1.346    
   (  1,107,101)  (  1,104,104)  (  1, 94,113)  (  1, 95,112)  (  1, 60,146)
  0   2.118      0   3.123      0   3.742      0   6.050      0   11.35    
   (  1,107,101)  (  1, 68, 53)  (  1,105,103)  (  1,104,104)  (  1, 63,144)
  1  0.8678      0  0.5538      0  0.3677      0 -0.3127      0  0.2640    
   (  1, 75,126)  (  1,107,101)  (  1, 96,111)  (  1, 66, 51)  (  1, 69,139)
  0  0.1920      0  0.2091      0 -0.1391      0 -0.1204      0 -0.1068    
   (  1, 95,112)  (  1, 60,146)  (  1, 96,111)  (  1, 66, 51)  (  1,107,101)
  0 -0.8161E-01  0  0.7690E-01  0  0.5805E-01  0 -0.6042E-01  0 -0.7130E-01
   (  1, 96,111)  (  1, 75,126)  (  1, 76,125)  (  1, 65,143)  (  1, 68,140)
  0 -0.6848E-01  0 -0.5638E-01  0  0.4047E-01  0  0.3462E-01  0 -0.3766E-01
   (  1, 75,126)  (  1, 76,125)  (  1, 99,109)  (  1,100,108)  (  1, 63,144)
  0  0.3743E-01  0 -0.3639E-01  0 -0.2457E-01  0 -0.1852E-01  0 -0.1581E-01
   (  1,103,105)  (  1, 71,135)  (  1, 70,138)  (  1, 59,146)  (  1, 64,144)
  0 -0.1203E-01  0 -0.1325E-01  0  0.1095E-01  0  0.9121E-02  0  0.1152E-01
   (  1, 77,123)  (  1, 72,133)  (  1,103,105)  (  1,103,105)  (  1,104,104)
  1  0.6598E-02  0  0.7530E-02  0  0.1056E-01  0  0.1447E-01  0  0.1690E-01
   (  1, 69,139)  (  1, 77,123)  (  1, 85,119)  (  1, 72,133)  (  1, 70,138)
  0  0.2019E-01  0  0.2777E-01  0  0.3668E-01  0  0.5646E-01  0  0.7258E-01
   (  1, 65,143)  (  1, 73,129)  (  1, 70,138)  (  1, 71,135)  (  1,100,108)
  0  0.9672E-01  0  0.1078      0  0.1297      0  0.1246      0  0.1464    
   (  1, 60,146)  (  1, 85,119)  (  1, 68,140)  (  1, 71,136)  (  1, 75,126)
  0  0.1716      0  0.1661      0  0.1781      0  0.2259      0  0.3013    
   (  1, 68,140)  (  1, 65,143)  (  1, 90,116)  (  1, 94,113)  (  1, 96,111)
  0  0.3856      0  0.5237      0  0.6889      0   1.017      0   1.316    
   (  1,107,101)  (  1, 65, 51)  (  1, 96,111)  (  1, 59, 56)  (  1, 60,146)
  0   2.010      0   2.866      0   3.594      0   5.682      0   9.007    
   (  1,107,101)  (  1, 66, 52)  (  1, 68,140)  (  1, 62, 58)  (  1,104,104)
  1  0.4074      0  0.4868      0  0.3673      0 -0.2707      0  0.2630    
   (  1,107,101)  (  1,107,101)  (  1, 96,111)  (  1, 66, 52)  (  1, 69,139)
  0  0.1861      0  0.2122      0  0.1470      0 -0.1047      0 -0.9413E-01
   (  1, 70,138)  (  1, 60,146)  (  1,107,101)  (  1, 65, 51)  (  1,107,101)
  0 -0.6150E-01  0  0.4731E-01  0  0.4993E-01  0 -0.5011E-01  0 -0.5369E-01
   (  1, 66,142)  (  1, 68, 53)  (  1,107,101)  (  1, 65,143)  (  1, 68,140)
  0 -0.4476E-01  0 -0.4506E-01  0  0.4034E-01  0 -0.3182E-01  0  0.3308E-01
   (  1, 69,139)  (  1, 71,136)  (  1, 65, 48)  (  1, 33,134)  (  1, 69, 45)
  0  0.2697E-01  0 -0.2281E-01  0 -0.2632E-01  0 -0.2294E-01  0 -0.1495E-01
   (  1,103,105)  (  1, 71,135)  (  1, 72,132)  (  1, 73,131)  (  1, 68,140)
  0  0.1297E-01  0  0.1178E-01  0  0.1278E-01  0  0.7839E-02  0  0.1001E-01
   (  1, 74,127)  (  1, 76,124)  (  1, 77,123)  (  1, 74,127)  (  1, 90,116)
  1  0.1029E-01  0 -0.6464E-02  0 -0.8096E-02  0  0.1186E-01  0  0.1648E-01
   (  1, 77,123)  (  1, 72,132)  (  1, 77,123)  (  1, 74,128)  (  1, 67,141)
  0  0.2177E-01  0  0.2617E-01  0  0.3391E-01  0  0.4031E-01  0  0.5313E-01
   (  1, 65,143)  (  1, 73,131)  (  1, 72,132)  (  1, 71,135)  (  1, 77,123)
  0  0.8174E-01  0  0.9274E-01  0  0.1277      0  0.1366      0  0.1270    
   (  1, 60,146)  (  1, 81,121)  (  1, 70,137)  (  1, 66,142)  (  1, 75,126)
  0  0.1685      0  0.1702      0  0.1887      0  0.2408      0  0.3201    
   (  1,105,103)  (  1, 65,143)  (  1, 90,116)  (  1,104,104)  (  1,105,103)
  0  0.3594      0  0.4395      0  0.5775      0  0.7531      0  0.9786    
   (  1, 99,109)  (  1, 63, 51)  (  1,104,104)  (  1,105,103)  (  1, 60,146)
  0   1.477      0   2.142      0   3.244      0   4.965      0   7.795    
   (  1,107,101)  (  1, 66, 52)  (  1, 68,140)  (  1, 69,139)  (  1,104,104)
  1  0.3316      0  0.3809      0 -0.3037      0 -0.2424      0  0.1952    
   (  1, 67,141)  (  1,107,101)  (  1, 68,140)  (  1,107,101)  (  1, 69,139)
  0  0.1509      0  0.1484      0  0.9829E-01  0 -0.8951E-01  0 -0.8724E-01
   (  1, 70,138)  (  1, 59,146)  (  1, 75,126)  (  1,103,105)  (  1,107,101)
  0 -0.7028E-01  0  0.5357E-01  0 -0.4771E-01  0 -0.4878E-01  0 -0.3536E-01
   (  1, 66,142)  (  1, 68, 53)  (  1, 64,144)  (  1, 65,143)  (  1,105,103)
  0 -0.4972E-01  0 -0.4476E-01  0  0.4154E-01  0 -0.3579E-01  0 -0.3512E-01
   (  1,103,105)  (  1, 66,142)  (  1, 66, 49)  (  1, 66,142)  (  1, 67,141)
  0 -0.3176E-01  0 -0.2123E-01  0 -0.1622E-01  0 -0.1104E-01  0 -0.1286E-01
   (  1, 69,139)  (  1, 67,141)  (  1, 75,126)  (  1, 73,131)  (  1, 67,141)
  0 -0.1328E-01  0  0.1159E-01  0  0.8492E-02  0  0.7416E-02  0  0.7962E-02
   (  1, 69,139)  (  1,104,104)  (  1,104,104)  (  1, 60, 54)  (  1, 91,115)
  1  0.4569E-02  0  0.6173E-02  0  0.7646E-02  0  0.1151E-01  0  0.1803E-01
   (  1,104,104)  (  1,104,104)  (  1, 69,139)  (  1, 72,133)  (  1, 69,139)
  0  0.2069E-01  0  0.2052E-01  0  0.3039E-01  0  0.3990E-01  0  0.5705E-01
   (  1, 65,143)  (  1, 63,144)  (  1, 72,132)  (  1, 67,141)  (  1, 69,139)
  0  0.8129E-01  0  0.1001      0  0.1222      0  0.1290      0  0.1363    
   (  1, 59,146)  (  1, 71,134)  (  1, 63,144)  (  1, 68,140)  (  1,103,105)
  0  0.1666      0  0.1775      0  0.2022      0  0.2467      0  0.3186    
   (  1,105,103)  (  1, 90,116)  (  1, 64,144)  (  1, 65,143)  (  1,105,103)
  0  0.3556      0  0.4029      0  0.5607      0  0.7371      0  0.9510    
   (  1, 67, 51)  (  1, 63, 51)  (  1, 67,141)  (  1, 65,143)  (  1, 67,141)
  0   1.411      0   2.094      0   3.153      0   5.502      0   7.631    
   (  1,107,101)  (  1, 66, 53)  (  1,105,103)  (  1, 69,139)  (  1,103,105)
  1 -0.3404      0  0.2768      0  0.2472      0 -0.1975      0 -0.1605    
   (  1,103,105)  (  1,107,101)  (  1,103,105)  (  1, 66, 53)  (  1,107,101)
  0 -0.1001      0  0.1083      0  0.9481E-01  0 -0.7139E-01  0 -0.6163E-01
   (  1, 72,132)  (  1, 72,133)  (  1,107,101)  (  1, 64, 52)  (  1,107,101)
  0 -0.5995E-01  0 -0.4311E-01  0 -0.4697E-01  0  0.3644E-01  0 -0.4159E-01
   (  1,105,103)  (  1, 72,133)  (  1, 71,134)  (  1, 69, 47)  (  1, 73,131)
  0 -0.5029E-01  0  0.3641E-01  0  0.4057E-01  0 -0.4014E-01  0 -0.4165E-01
   (  1, 72,132)  (  1, 64, 52)  (  1, 66, 49)  (  1, 65,143)  (  1, 60,146)
  0 -0.2372E-01  0 -0.2544E-01  0 -0.1373E-01  0 -0.1309E-01  0 -0.1401E-01
   (  1, 65,143)  (  1, 66,142)  (  1, 69,138)  (  1, 66,142)  (  1, 67,141)
  0 -0.1243E-01  0 -0.7810E-02  0  0.1384E-01  0  0.6865E-02  0 -0.7131E-02
   (  1, 69,139)  (  1, 67,141)  (  1,104,104)  (  1, 60, 54)  (  1,104,104)
  1  0.7032E-02  0  0.6654E-02  0  0.7690E-02  0  0.1400E-01  0  0.1608E-01
   (  1,104,104)  (  1,104,104)  (  1, 73,131)  (  1, 60,146)  (  1, 68,140)
  0  0.2033E-01  0  0.2030E-01  0  0.3105E-01  0  0.4061E-01  0  0.5954E-01
   (  1, 67,141)  (  1, 66,142)  (  1, 69,139)  (  1, 66,142)  (  1, 69,139)
  0  0.8840E-01  0  0.1047      0  0.1209      0  0.1304      0  0.1534    
   (  1, 59,146)  (  1, 65,143)  (  1, 72,133)  (  1, 71,136)  (  1, 72,132)
  0  0.1687      0  0.1741      0  0.2009      0  0.2442      0  0.3078    
   (  1,105,103)  (  1, 72,132)  (  1, 71,134)  (  1, 72,133)  (  1,105,103)
  0  0.3501      0  0.4127      0  0.5523      0  0.7384      0  0.9535    
   (  1, 66, 51)  (  1, 63, 52)  (  1, 48, 61)  (  1,105,103)  (  1, 67,141)
  0   1.402      0   2.083      0   3.279      0   5.633      0   7.574    
   (  1,107,101)  (  1, 66, 53)  (  1,105,103)  (  1,108,100)  (  1,103,105)
  1  0.2812      0 -0.2340      0 -0.2212      0  0.1990      0  0.1931    
   (  1,107,101)  (  1,108,100)  (  1, 68,140)  (  1, 73,131)  (  1, 72,133)
  0 -0.2018      0  0.1460      0  0.8492E-01  0  0.7551E-01  0  0.5487E-01
   (  1, 72,132)  (  1, 72,133)  (  1,107,101)  (  1, 70,138)  (  1, 67,141)
  0 -0.7137E-01  0 -0.4967E-01  0  0.4780E-01  0  0.3386E-01  0  0.4016E-01
   (  1,105,103)  (  1,109, 99)  (  1,104,103)  (  2,136, 76)  (  1,109, 99)
  0  0.4589E-01  0  0.3430E-01  0  0.3845E-01  0 -0.3885E-01  0 -0.3893E-01
   (  1,109, 99)  (  1, 63, 52)  (  1, 65, 49)  (  1, 65,143)  (  1, 60,146)
  0  0.1946E-01  0 -0.2297E-01  0 -0.1332E-01  0  0.1256E-01  0 -0.1486E-01
   (  1, 70, 46)  (  1, 66,142)  (  1, 39,139)  (  1,104,104)  (  1, 67,141)
  0 -0.1094E-01  0 -0.8946E-02  0  0.1208E-01  0  0.6110E-02  0 -0.7402E-02
   (  1, 68,140)  (  1, 60,146)  (  1,104,104)  (  1, 60, 54)  (  1,104,104)
  1  0.7245E-02  0  0.7687E-02  0  0.8925E-02  0  0.1467E-01  0  0.1572E-01
   (  1,104,104)  (  1, 69,139)  (  1, 67,141)  (  1, 60,146)  (  1, 68,140)
  0  0.2301E-01  0  0.2186E-01  0  0.3245E-01  0  0.4580E-01  0  0.6165E-01
   (  1, 67,141)  (  1, 65,143)  (  1, 69,139)  (  1, 65,143)  (  1, 69,139)
  0  0.8209E-01  0  0.1082      0  0.1231      0  0.1423      0  0.1510    
   (  1, 59,146)  (  1, 72,133)  (  1, 69,139)  (  1, 72,133)  (  1, 71,136)
  0  0.1689      0  0.1702      0  0.1920      0  0.2304      0  0.3102    
   (  1, 72,132)  (  1, 22,121)  (  1, 72,132)  (  1,109, 99)  (  1,105,103)
  0  0.3409      0  0.4216      0  0.5433      0  0.7537      0  0.9621    
   (  1, 65,143)  (  1, 61, 51)  (  1, 59,146)  (  1, 70,137)  (  1,105,103)
  0   1.438      0   2.032      0   3.213      0   5.652      0   7.779    
   (  1,107,101)  (  1, 66, 54)  (  1,106,102)  (  1,108,100)  (  1, 68,140)
  1 -0.3473      0  0.2754      0 -0.2507      0  0.1652      0  0.1222    
   (  1, 68,140)  (  1, 68,140)  (  1, 68,140)  (  1, 73,131)  (  1, 69,139)
  0 -0.1411      0  0.1468      0 -0.1028      0  0.8971E-01  0 -0.7246E-01
   (  1, 72,132)  (  1, 72,133)  (  1, 72,133)  (  1, 72,132)  (  1, 70,137)
  0 -0.6477E-01  0 -0.4673E-01  0  0.4758E-01  0 -0.3993E-01  0 -0.4389E-01
   (  1,105,103)  (  1,109, 99)  (  1,105,103)  (  1, 70,138)  (  1,104,104)
  0  0.4445E-01  0 -0.4313E-01  0 -0.4872E-01  0 -0.5198E-01  0 -0.3327E-01
   (  1,109, 99)  (  1, 66,142)  (  1, 67,141)  (  1, 66,142)  (  1, 65,143)
  0 -0.2580E-01  0 -0.2962E-01  0 -0.1677E-01  0  0.1687E-01  0 -0.1551E-01
   (  1, 62,145)  (  1, 65,143)  (  1, 67,141)  (  1,104,104)  (  1, 67,141)
  0 -0.1508E-01  0 -0.8846E-02  0  0.1414E-01  0  0.5322E-02  0 -0.8856E-02
   (  1,104,104)  (  1, 60,146)  (  1,104,104)  (  1, 60, 54)  (  1,104,104)
  1  0.7564E-02  0  0.6215E-02  0 -0.9385E-02  0  0.1481E-01  0  0.1874E-01
   (  1,104,104)  (  1, 65,143)  (  1,104,104)  (  1, 67,141)  (  1,104,104)
  0  0.2646E-01  0  0.2597E-01  0  0.4363E-01  0  0.5281E-01  0  0.5778E-01
   (  1, 67,141)  (  1, 73,131)  (  1, 72,132)  (  1, 71,135)  (  1, 66,142)
  0  0.7639E-01  0  0.9246E-01  0  0.1287      0  0.1276      0  0.1498    
   (  1, 73,131)  (  1, 65,143)  (  1,104,104)  (  1, 67,141)  (  1, 66,142)
  0  0.1820      0  0.1706      0  0.1823      0  0.2283      0  0.3314    
   (  1,105,103)  (  1,105,103)  (  1,101,107)  (  1,107,101)  (  1,105,103)
  0  0.3515      0  0.4503      0  0.6096      0  0.7922      0   1.010    
   (  1, 65,143)  (  1, 63, 52)  (  1, 69,139)  (  1, 70,137)  (  1, 72,132)
  0   1.435      0   1.972      0   3.214      0   5.411      0   8.045    
   (  1,107,101)  (  1, 65, 54)  (  1,106,102)  (  1, 69,139)  (  1,103,105)
  1 -0.3018      0 -0.2518      0  0.2159      0 -0.1807      0  0.1713    
   (  1, 68,140)  (  1, 69,139)  (  1, 69,139)  (  1, 69,139)  (  1, 72,133)
  0 -0.1685      0  0.1484      0  0.8328E-01  0  0.1110      0 -0.7497E-01
   (  1, 72,132)  (  1, 72,132)  (  1, 73,129)  (  1, 70,138)  (  1, 70,137)
  0 -0.7443E-01  0  0.5340E-01  0  0.5206E-01  0  0.3498E-01  0 -0.4390E-01
   (  1,105,103)  (  1, 65,143)  (  1,105,103)  (  2,110,  6)  (  1,105,103)
  0  0.4420E-01  0  0.4523E-01  0 -0.5298E-01  0 -0.5988E-01  0 -0.3567E-01
   (  1,109, 99)  (  1,105,103)  (  1, 67,141)  (  1, 66,142)  (  1, 65,143)
  0 -0.2974E-01  0 -0.2376E-01  0 -0.1688E-01  0  0.1564E-01  0 -0.1072E-01
   (  1, 62,145)  (  2, 65,143)  (  1, 63,144)  (  1,104,104)  (  1, 59,146)
  0 -0.1594E-01  0 -0.8583E-02  0  0.1493E-01  0  0.5312E-02  0 -0.8986E-02
   (  1,104,104)  (  1, 60,146)  (  1,104,104)  (  1, 66, 48)  (  1,104,104)
  1  0.8637E-02  0  0.8753E-02  0  0.1143E-01  0  0.1425E-01  0  0.1679E-01
   (  1, 67,141)  (  1, 68,140)  (  1, 70,137)  (  1, 71,136)  (  1, 72,133)
  0  0.2132E-01  0  0.3105E-01  0  0.3727E-01  0  0.4421E-01  0  0.5479E-01
   (  1, 71,136)  (  1, 72,133)  (  1, 73,131)  (  1, 63,144)  (  1, 59,146)
  0  0.8076E-01  0  0.9840E-01  0  0.1318      0  0.1538      0  0.1648    
   (  1, 73,131)  (  2, 65,143)  (  1, 66,142)  (  1, 67,141)  (  1, 66,142)
  0  0.1709      0  0.1868      0  0.1808      0  0.2295      0  0.3352    
   (  1, 74,128)  (  1,105,103)  (  1, 71,134)  (  1,107,101)  (  1,105,103)
  0  0.3523      0  0.4438      0  0.6089      0  0.7904      0   1.026    
   (  1, 65,143)  (  1, 63, 52)  (  1, 69,139)  (  1, 70,137)  (  1,105,103)
  0   1.405      0   1.950      0   3.104      0   5.332      0   7.792    
   (  1,107,101)  (  1, 65, 54)  (  1,106,102)  (  1,105,103)  (  1, 72,132)
  1 -0.3246      0  0.3607      0  0.3013      0  0.1634      0 -0.1463    
   (  1, 72,132)  (  1, 72,133)  (  1, 71,134)  (  1, 70,137)  (  1, 70,138)
  0  0.8843E-01  0  0.9918E-01  0 -0.6626E-01  0 -0.8127E-01  0  0.8095E-01
   (  1, 70,137)  (  1, 68,140)  (  1,111, 97)  (  1, 69,139)  (  1, 69,139)
  0 -0.6971E-01  0  0.4857E-01  0 -0.4557E-01  0  0.3698E-01  0  0.3843E-01
   (  1,105,103)  (  1, 72,132)  (  1, 69,139)  (  2,110,  6)  (  2,110,  6)
  0 -0.4367E-01  0 -0.5753E-01  0 -0.4573E-01  0 -0.5012E-01  0 -0.4049E-01
   (  1, 74,128)  (  1, 66,142)  (  1, 67,141)  (  1, 66,142)  (  1, 65,143)
  0  0.2607E-01  0 -0.2265E-01  0 -0.1780E-01  0 -0.1670E-01  0 -0.1202E-01
   (  1,105,103)  (  1, 70,137)  (  1, 63,144)  (  1, 73,131)  (  1, 59,146)
  0 -0.1038E-01  0 -0.9916E-02  0  0.9363E-02  0 -0.7487E-02  0  0.5754E-02
   (  1,104,104)  (  1, 68,140)  (  1,104,104)  (  1, 72,133)  (  1, 72,132)
  1  0.5582E-02  0  0.9869E-02  0  0.1032E-01  0  0.1458E-01  0  0.1544E-01
   (  1, 71,134)  (  1, 72,133)  (  1, 71,134)  (  1,101,107)  (  1, 67,141)
  0  0.2085E-01  0  0.2550E-01  0  0.3146E-01  0  0.5219E-01  0  0.6012E-01
   (  1, 68,140)  (  1, 61,145)  (  1, 68,140)  (  1,102,106)  (  2, 60,146)
  0  0.9799E-01  0  0.1106      0  0.1324      0  0.1707      0  0.1668    
   (  1, 65,143)  (  1, 66,142)  (  1, 65,143)  (  1, 66,142)  (  1, 67,141)
  0  0.1793      0  0.1908      0  0.2270      0  0.2405      0  0.3035    
   (  1,102,106)  (  1, 67,141)  (  1, 69,139)  (  1, 70,138)  (  1, 72,133)
  0  0.3586      0  0.4441      0  0.6422      0  0.8169      0   1.093    
   (  1, 67, 51)  (  1, 69,139)  (  1,111, 97)  (  1,102,106)  (  1,105,103)
  0   1.440      0   2.116      0   2.999      0   5.324      0   6.975    
   (  1,107,101)  (  1, 68,140)  (  1, 70,138)  (  1, 71,136)  (  1, 72,133)
  1 -0.4249      0  0.3815      0  0.1635      0 -0.1503      0 -0.1547    
   (  1, 72,133)  (  1, 72,133)  (  1, 71,134)  (  1,107,101)  (  1,107,101)
  0  0.1142      0  0.8446E-01  0  0.9805E-01  0 -0.7142E-01  0  0.7387E-01
   (  1, 70,137)  (  1, 68,140)  (  1,107,101)  (  1, 67,141)  (  1, 67,141)
  0 -0.4214E-01  0  0.3668E-01  0  0.3972E-01  0 -0.3947E-01  0  0.3968E-01
   (  1,104,104)  (  1, 67,141)  (  1, 68, 51)  (  1, 66,142)  (  1,106,102)
  0 -0.3796E-01  0 -0.3862E-01  0 -0.7204E-01  0  0.3219E-01  0 -0.3110E-01
   (  1, 69,139)  (  1, 70,137)  (  1, 69,139)  (  1, 67, 49)  (  1, 65,143)
  0 -0.2681E-01  0 -0.2068E-01  0 -0.1709E-01  0  0.1621E-01  0  0.1185E-01
   (  1, 68,140)  (  1, 62,145)  (  1, 65,143)  (  1, 69, 51)  (  1, 63, 57)
  0 -0.8812E-02  0  0.8594E-02  0  0.5554E-02  0  0.7148E-02  0  0.5264E-02
   (  1, 66,142)  (  1,107,101)  (  1, 77, 57)  (  1, 67, 48)  (  1, 71,135)
  1  0.5910E-02  0  0.6713E-02  0  0.1033E-01  0  0.1348E-01  0  0.1568E-01
   (  1, 72,133)  (  1, 71,134)  (  1, 70,138)  (  1, 67,141)  (  2, 67,141)
  0  0.1774E-01  0  0.2652E-01  0  0.3200E-01  0  0.4840E-01  0  0.5593E-01
   (  1, 67,141)  (  1, 68,140)  (  1, 66,142)  (  1,102,106)  (  1, 66,142)
  0  0.8454E-01  0  0.1063      0  0.1325      0  0.1397      0  0.1712    
   (  1, 67,141)  (  1, 66,142)  (  1, 69,139)  (  1, 70,137)  (  1, 69,139)
  0  0.1672      0  0.2017      0  0.1920      0  0.2311      0  0.2661    
   (  1, 73,131)  (  1, 69,139)  (  1, 70,138)  (  1,106,102)  (  1,104,104)
  0  0.3590      0  0.4352      0  0.5746      0  0.7540      0   1.052    
   (  1,105,103)  (  1,101,107)  (  1,111, 97)  (  1,102,106)  (  1,105,103)
  0   1.312      0   1.865      0   2.642      0   4.526      0   6.503    
   (  1,107,101)  (  1,107,101)  (  1,104,104)  (  1, 72,132)  (  1, 71,136)
  1  0.3904      0  0.3691      0  0.1561      0 -0.1756      0 -0.1580    
   (  1, 72,133)  (  1, 71,134)  (  1, 72,133)  (  1,107,101)  (  1,107,101)
  0 -0.1110      0  0.1045      0  0.7793E-01  0 -0.7047E-01  0 -0.6697E-01
   (  1,105,103)  (  1, 67,141)  (  1, 66,142)  (  1, 68,140)  (  1,107,101)
  0  0.4521E-01  0  0.4160E-01  0 -0.4991E-01  0 -0.4593E-01  0  0.5488E-01
   (  2,107,  7)  (  2,102, 10)  (  1,106,102)  (  1, 69,139)  (  1, 69,139)
  0 -0.7349E-01  0 -0.4327E-01  0 -0.4113E-01  0 -0.3270E-01  0  0.3350E-01
   (  1, 69,139)  (  1, 70,138)  (  1, 72,132)  (  1, 73,129)  (  1,106,102)
  0 -0.2514E-01  0  0.1933E-01  0 -0.1556E-01  0 -0.1498E-01  0 -0.1039E-01
   (  1, 59,146)  (  1, 67, 54)  (  1, 71,135)  (  1, 69,139)  (  1, 67,141)
  0 -0.7986E-02  0  0.8680E-02  0  0.7141E-02  0  0.5727E-02  0  0.6180E-02
   (  1, 60,146)  (  1,107,101)  (  1,108,100)  (  1, 75, 68)  (  1, 65,143)
  1  0.4596E-02  0  0.6787E-02  0  0.1227E-01  0  0.1270E-01  0  0.1430E-01
   (  1, 70,137)  (  1,107,101)  (  1, 72,133)  (  1, 71,134)  (  1, 68,140)
  0  0.1757E-01  0  0.1858E-01  0  0.2932E-01  0  0.4335E-01  0  0.5311E-01
   (  1, 71,136)  (  1, 67,141)  (  1,107,101)  (  1, 71,135)  (  1, 73,131)
  0  0.6765E-01  0  0.9755E-01  0  0.1182      0  0.1388      0  0.1682    
   (  1, 74,127)  (  1, 74,128)  (  1, 73,129)  (  1, 67,141)  (  1, 74,128)
  0  0.1813      0  0.2035      0  0.2156      0  0.2210      0  0.2845    
   (  1, 67,141)  (  1, 73,131)  (  1, 69,139)  (  1, 70,138)  (  1, 69,139)
  0  0.3028      0  0.4027      0  0.5069      0  0.6520      0  0.8813    
   (  1, 66, 49)  (  1, 69,139)  (  1, 68,140)  (  1, 60, 56)  (  1,111, 97)
  0   1.082      0   1.550      0   2.506      0   3.798      0   6.930    
   (  1, 67,141)  (  1, 66, 50)  (  1, 67,141)  (  1, 68,140)  (  1, 67, 68)
  1 -0.2913      0  0.3638      0  0.1938      0  0.1229      0 -0.1237    
   (  1, 70,137)  (  1, 70,137)  (  1, 71,134)  (  1, 72,133)  (  1,107,101)
  0 -0.1053      0  0.1434      0 -0.8865E-01  0 -0.9310E-01  0  0.7618E-01
   (  1, 67,141)  (  1, 67,141)  (  1, 67,141)  (  1, 68,140)  (  1, 68,140)
  0  0.9046E-01  0 -0.8583E-01  0  0.4830E-01  0 -0.4682E-01  0 -0.4998E-01
   (  1, 69,139)  (  1, 69,139)  (  1, 68, 51)  (  1, 72,133)  (  1, 73,131)
  0 -0.3846E-01  0 -0.4504E-01  0 -0.4450E-01  0 -0.3275E-01  0 -0.3508E-01
   (  1, 74,128)  (  1, 66,142)  (  1, 68,140)  (  1, 70,137)  (  1, 74,128)
  0 -0.2401E-01  0 -0.2530E-01  0  0.1574E-01  0  0.1696E-01  0  0.1036E-01
   (  1, 59,146)  (  1,102,106)  (  1, 69, 51)  (  1, 69, 51)  (  1, 62, 57)
  0 -0.9954E-02  0 -0.7835E-02  0  0.6253E-02  0  0.5975E-02  0  0.6103E-02
   (  1,102,106)  (  1, 68,140)  (  1, 77, 57)  (  1, 68, 49)  (  1, 72,132)
  1 -0.5533E-02  0  0.6922E-02  0  0.1176E-01  0  0.1172E-01  0  0.1385E-01
   (  1, 72,133)  (  1, 72,133)  (  1, 71,134)  (  1, 70,138)  (  2, 65,143)
  0  0.1767E-01  0  0.2290E-01  0  0.3161E-01  0  0.4348E-01  0  0.5296E-01
   (  1, 66,142)  (  1, 68,140)  (  1, 66,142)  (  1, 71,135)  (  1, 69,139)
  0  0.7224E-01  0  0.9283E-01  0  0.1158      0  0.1382      0  0.1544    
   (  1, 74,128)  (  1, 64,144)  (  1, 60,146)  (  1, 65,143)  (  1, 74,128)
  0  0.1960      0  0.2001      0  0.2141      0  0.2182      0  0.2932    
   (  1, 60,146)  (  1, 66,142)  (  1,106,102)  (  1, 66,142)  (  1, 69,139)
  0  0.3080      0  0.4306      0  0.5501      0  0.6986      0  0.9258    
   (  1, 66, 49)  (  1, 69,139)  (  1, 68,140)  (  1,102,106)  (  1,111, 97)
  0   1.171      0   1.602      0   2.760      0   5.687      0   8.067    
   (  1,107,101)  (  1, 65, 50)  (  1,102,106)  (  1, 66, 68)  (  1, 67,141)
  1 -0.4816      0  0.3080      0 -0.1880      0  0.1394      0 -0.1562    
   (  1, 67,141)  (  1, 67,141)  (  1, 67,141)  (  1, 69,139)  (  1, 69,139)
  0  0.1628      0  0.1325      0 -0.6953E-01  0  0.8183E-01  0 -0.7369E-01
   (  1, 69,139)  (  1, 70,138)  (  1, 70,137)  (  1, 72,133)  (  1, 72,133)
  0  0.6935E-01  0 -0.4777E-01  0  0.4446E-01  0  0.4338E-01  0 -0.4901E-01
   (  1, 69,139)  (  1, 72,133)  (  1, 68, 51)  (  2,110,  6)  (  1,102,106)
  0  0.3894E-01  0  0.4129E-01  0  0.3608E-01  0  0.3679E-01  0  0.3114E-01
   (  2,118,  4)  (  1,102,106)  (  1, 65, 49)  (  1, 68, 50)  (  1,106,102)
  0 -0.2395E-01  0 -0.1836E-01  0 -0.1518E-01  0  0.1765E-01  0  0.9944E-02
   (  1, 74,128)  (  1, 59,146)  (  1, 71,135)  (  1, 69, 51)  (  1, 63, 57)
  0 -0.9250E-02  0  0.9219E-02  0  0.8308E-02  0  0.6599E-02  0  0.3845E-02
   (  1,102,106)  (  1,107,101)  (  1,102,106)  (  1, 68, 49)  (  1,101,107)
  1  0.2708E-02  0  0.6521E-02  0  0.9307E-02  0  0.1141E-01  0  0.1661E-01
   (  1,102,106)  (  1,107,101)  (  1, 74,128)  (  1, 72,133)  (  1,102,106)
  0  0.2175E-01  0  0.2485E-01  0  0.2993E-01  0  0.4249E-01  0  0.5026E-01
   (  1, 70,137)  (  1, 71,136)  (  1, 72,133)  (  1,102,106)  (  1, 62,145)
  0  0.7307E-01  0  0.9132E-01  0  0.1170      0  0.1555      0  0.1767    
   (  1, 74,128)  (  1, 73,131)  (  1, 69,139)  (  1, 68,140)  (  1, 69,139)
  0  0.1882      0  0.2071      0  0.2036      0  0.2259      0  0.2851    
   (  1, 68,140)  (  1,102,106)  (  1, 68,140)  (  1,106,102)  (  1,102,106)
  0  0.3306      0  0.3918      0  0.5710      0  0.7071      0  0.9374    
   (  1, 66, 49)  (  1, 67, 52)  (  1,110, 98)  (  1,102,106)  (  1, 57, 59)
  0   1.199      0   1.644      0   2.856      0   5.162      0   7.013    
   (  1,107,101)  (  1,106,102)  (  1,102,106)  (  1, 69,139)  (  1, 67,141)
  1 -0.3825      0  0.3077      0 -0.1871      0  0.1358      0  0.1256    
   (  1, 67,141)  (  1, 67,141)  (  1, 67,141)  (  1, 67,141)  (  1, 68,140)
  0  0.1852      0  0.1185      0  0.9532E-01  0 -0.6347E-01  0 -0.6184E-01
   (  1, 69,139)  (  1, 68,140)  (  1, 69,139)  (  1, 69,139)  (  1, 72,133)
  0  0.6740E-01  0 -0.6239E-01  0  0.4531E-01  0  0.3840E-01  0 -0.4965E-01
   (  1, 72,132)  (  1, 72,133)  (  1, 68, 51)  (  2,103,  8)  (  1,102,106)
  0 -0.4270E-01  0  0.4476E-01  0 -0.3880E-01  0  0.3759E-01  0 -0.2903E-01
   (  1, 66,142)  (  1,102,106)  (  1, 66,142)  (  1, 68, 50)  (  1, 66,142)
  0 -0.2918E-01  0  0.1938E-01  0 -0.1397E-01  0  0.1756E-01  0  0.1120E-01
   (  1, 65,143)  (  1, 67, 54)  (  1, 65,143)  (  1, 69, 51)  (  1, 62, 56)
  0 -0.1028E-01  0  0.7950E-02  0  0.7031E-02  0  0.7461E-02  0  0.3973E-02
   (  1,109, 99)  (  1, 66, 53)  (  1,102,106)  (  1,109, 99)  (  1, 68, 49)
  1  0.3078E-02  0  0.5073E-02  0  0.8661E-02  0  0.1147E-01  0  0.1586E-01
   (  1,102,106)  (  1, 72,132)  (  1, 70,138)  (  2, 65,143)  (  1,102,106)
  0  0.1735E-01  0  0.2356E-01  0  0.3364E-01  0  0.5114E-01  0  0.6208E-01
   (  2, 69,139)  (  1, 66,142)  (  1, 69,139)  (  1, 70,138)  (  1, 69,139)
  0  0.7596E-01  0  0.9290E-01  0  0.1304      0  0.1402      0  0.1700    
   (  1, 68,140)  (  2, 68,140)  (  1, 72,132)  (  1, 66,142)  (  1, 67,141)
  0  0.1797      0  0.2205      0  0.2279      0  0.2237      0  0.3104    
   (  1, 68,140)  (  1,102,106)  (  1, 68,140)  (  1, 66,142)  (  1,102,106)
  0  0.3229      0  0.4216      0  0.5462      0  0.7555      0  0.9199    
   (  1, 66, 49)  (  1,103,105)  (  1,110, 98)  (  1,102,106)  (  1, 57, 59)
  0   1.232      0   1.637      0   2.671      0   4.971      0   6.528    
   (  1,107,101)  (  1,107,101)  (  1,102,106)  (  1, 67,141)  (  1, 69,139)
  1  0.3577      0 -0.2908      0 -0.1933      0 -0.1495      0 -0.1364    
   (  1, 67,141)  (  1, 67,141)  (  1,102,106)  (  1,107,101)  (  1,107,101)
  0  0.1458      0  0.1462      0 -0.1087      0 -0.7407E-01  0 -0.6516E-01
   (  1, 68,140)  (  1, 69,139)  (  1, 69,139)  (  1,103,105)  (  1,107,101)
  0 -0.5965E-01  0 -0.5885E-01  0 -0.5515E-01  0  0.4010E-01  0 -0.7016E-01
   (  1,102,106)  (  1, 71,134)  (  1, 70,138)  (  2,103,  8)  (  1,102,106)
  0  0.3786E-01  0  0.4865E-01  0  0.3577E-01  0  0.3531E-01  0  0.3180E-01
   (  2,118,  4)  (  1,102,106)  (  1, 68, 51)  (  1, 68, 50)  (  1,102,106)
  0 -0.2647E-01  0 -0.2062E-01  0 -0.1482E-01  0  0.1560E-01  0  0.1052E-01
   (  1, 65,143)  (  1,102,106)  (  1, 65,143)  (  1, 69, 51)  (  1, 62, 56)
  0 -0.9973E-02  0  0.7238E-02  0  0.6953E-02  0  0.7414E-02  0  0.3544E-02
   (  1, 66,142)  (  1, 66, 53)  (  1,102,106)  (  1,109, 99)  (  1, 68, 49)
  1  0.3874E-02  0  0.5862E-02  0  0.1019E-01  0  0.1172E-01  0  0.1686E-01
   (  1,102,106)  (  1, 72,132)  (  1, 66,142)  (  2, 65,143)  (  1, 66,142)
  0  0.1854E-01  0  0.2565E-01  0  0.3420E-01  0  0.4931E-01  0  0.5610E-01
   (  1, 69,139)  (  1, 70,137)  (  1, 69,139)  (  1, 70,137)  (  1, 69,139)
  0  0.7475E-01  0  0.8961E-01  0  0.1225      0  0.1395      0  0.1918    
   (  1, 68,140)  (  1, 73,131)  (  1,102,106)  (  1, 66,142)  (  1, 68,140)
  0  0.1755      0  0.2172      0  0.2122      0  0.2241      0  0.3111    
   (  1, 72,133)  (  1, 68,140)  (  1, 67,141)  (  1, 66,142)  (  1,102,106)
  0  0.3216      0  0.4175      0  0.5131      0  0.7242      0  0.8640    
   (  1,107,101)  (  1,103,105)  (  1, 40, 74)  (  1,102,106)  (  1, 72,133)
  0   1.056      0   1.552      0   2.353      0   4.146      0   6.615    
   (  1,107,101)  (  1,107,101)  (  1,102,106)  (  1, 65, 67)  (  1,103,105)
  1  0.3491      0  0.2845      0 -0.2061      0 -0.1851      0  0.1424    
   (  1,107,101)  (  1,107,101)  (  1,102,106)  (  1,107,101)  (  1, 69,139)
  0  0.1059      0 -0.1202      0  0.9175E-01  0  0.7563E-01  0 -0.6796E-01
   (  1, 67,141)  (  1,102,106)  (  1,107,101)  (  1,102,106)  (  1,107,101)
  0 -0.6271E-01  0 -0.6351E-01  0  0.6837E-01  0 -0.6011E-01  0 -0.5341E-01
   (  1,102,106)  (  1, 68,140)  (  1,102,106)  (  1, 68,140)  (  1,102,106)
  0 -0.4725E-01  0 -0.4404E-01  0 -0.5418E-01  0 -0.4349E-01  0  0.2652E-01
   (  1, 72,133)  (  1, 71,136)  (  1, 70,138)  (  1, 71,136)  (  1, 63, 55)
  0 -0.2703E-01  0 -0.2148E-01  0 -0.1686E-01  0  0.1423E-01  0  0.1166E-01
   (  1, 65,143)  (  1,102,106)  (  1, 65,143)  (  1, 69, 51)  (  1, 61, 55)
  0 -0.9434E-02  0  0.7406E-02  0  0.7535E-02  0  0.6071E-02  0  0.3977E-02
   (  1, 66,142)  (  1, 66, 53)  (  1,102,106)  (  1, 63, 56)  (  1, 63, 56)
  1  0.4086E-02  0  0.5821E-02  0  0.9228E-02  0  0.1189E-01  0  0.1551E-01
   (  1,102,106)  (  1, 68,140)  (  1, 70,138)  (  1, 68,140)  (  1, 66,142)
  0  0.1738E-01  0  0.2404E-01  0  0.3596E-01  0  0.4987E-01  0  0.6011E-01
   (  2, 60,146)  (  1, 66,142)  (  1, 65,143)  (  1,102,106)  (  1, 65,143)
  0  0.7798E-01  0  0.1078      0  0.1403      0  0.1504      0  0.1803    
   (  1, 66,142)  (  1, 71,135)  (  1, 70,138)  (  1, 71,136)  (  1, 72,133)
  0  0.1969      0  0.2248      0  0.2483      0  0.2347      0  0.2747    
   (  1,102,106)  (  1, 68,140)  (  1, 69,139)  (  1, 68,140)  (  1,102,106)
  0  0.3298      0  0.4019      0  0.5172      0  0.6987      0  0.8553    
   (  1,107,101)  (  1,103,105)  (  1, 94,113)  (  1,102,106)  (  1, 95,112)
  0   1.069      0   1.618      0   2.278      0   3.795      0   6.257    
   (  1,107,101)  (  1,107,101)  (  1,102,106)  (  2,117, 91)  (  1,103,105)
  1  0.4086      0  0.2969      0 -0.1655      0 -0.2147      0  0.1474    
   (  1,107,101)  (  1,107,101)  (  1,102,106)  (  1,107,101)  (  1, 69,139)
  0  0.9883E-01  0 -0.1138      0  0.8929E-01  0 -0.6529E-01  0 -0.8281E-01
   (  1, 67,141)  (  1,102,106)  (  1,107,101)  (  1,103,105)  (  1,107,101)
  0 -0.5917E-01  0 -0.4929E-01  0 -0.5891E-01  0 -0.6666E-01  0  0.4391E-01
   (  1,102,106)  (  1, 68,140)  (  1, 69,139)  (  1, 68,140)  (  2,103,  8)
  0 -0.4478E-01  0 -0.3543E-01  0 -0.3702E-01  0 -0.4030E-01  0 -0.3574E-01
   (  1,107,101)  (  1, 66,142)  (  1, 70,138)  (  1, 71,136)  (  1, 72,133)
  0 -0.2762E-01  0 -0.2238E-01  0 -0.1760E-01  0 -0.1173E-01  0  0.1142E-01
   (  1, 69,139)  (  1, 70,137)  (  1, 65,143)  (  2, 66,142)  (  1, 60, 53)
  0 -0.9478E-02  0  0.7232E-02  0  0.7659E-02  0  0.5677E-02  0  0.3508E-02
   (  1, 66,142)  (  1, 94,113)  (  1,102,106)  (  1, 93, 67)  (  1, 63, 56)
  1  0.3566E-02  0  0.6473E-02  0  0.9998E-02  0  0.1272E-01  0  0.1532E-01
   (  1, 94,113)  (  1, 94,113)  (  1, 66,142)  (  1, 68,140)  (  1, 66,142)
  0  0.1763E-01  0  0.2389E-01  0  0.3456E-01  0  0.4855E-01  0  0.6169E-01
   (  1, 65,143)  (  2, 66,142)  (  1, 65,143)  (  1, 70,137)  (  1, 69,139)
  0  0.7598E-01  0  0.9535E-01  0  0.1149      0  0.1404      0  0.1844    
   (  1, 72,132)  (  1, 71,135)  (  1, 70,138)  (  1, 66,142)  (  1,107,101)
  0  0.1933      0  0.2409      0  0.2322      0  0.2282      0  0.2758    
   (  1, 69,139)  (  1, 68,140)  (  1, 69,139)  (  1, 68,140)  (  1, 67,141)
  0  0.3346      0  0.3839      0  0.5176      0  0.6843      0  0.8831    
   (  1,107,101)  (  1, 68, 52)  (  1, 94,113)  (  1,102,106)  (  1, 95,112)
  0   1.081      0   1.634      0   2.182      0   3.553      0   5.886    
   (  1,107,101)  (  1,107,101)  (  1,102,106)  (  2,117, 91)  (  1,103,105)
  1  0.3987      0  0.3151      0  0.1390      0 -0.2151      0 -0.1470    
   (  1,107,101)  (  1,107,101)  (  1, 69,139)  (  1,107,101)  (  1,107,101)
  0  0.1045      0 -0.9165E-01  0  0.9672E-01  0  0.5110E-01  0 -0.8357E-01
   (  1, 70,138)  (  1,102,106)  (  1,107,101)  (  1,102,106)  (  1,107,101)
  0 -0.4941E-01  0 -0.6429E-01  0 -0.6377E-01  0  0.4568E-01  0 -0.4523E-01
   (  1,102,106)  (  1, 71,136)  (  1, 70,138)  (  1,107,101)  (  1, 70,138)
  0 -0.4517E-01  0 -0.4249E-01  0 -0.4288E-01  0 -0.4834E-01  0 -0.3445E-01
   (  1,107,101)  (  1, 68,140)  (  1, 69,139)  (  1, 68,140)  (  1, 67,141)
  0 -0.2672E-01  0 -0.1752E-01  0 -0.1520E-01  0 -0.1133E-01  0  0.1199E-01
   (  1, 68,140)  (  1,107,101)  (  1, 95,112)  (  2, 66,142)  (  1, 60, 53)
  0 -0.8491E-02  0  0.7449E-02  0 -0.6203E-02  0  0.5800E-02  0  0.3232E-02
   (  1, 66,142)  (  1, 94,113)  (  1, 70,138)  (  1, 76, 67)  (  1, 63, 56)
  1  0.3924E-02  0  0.7173E-02  0  0.9825E-02  0  0.1262E-01  0  0.1345E-01
   (  1, 66,142)  (  1, 94,113)  (  1, 66,142)  (  1, 68,140)  (  1, 66,142)
  0  0.1740E-01  0  0.2358E-01  0  0.3358E-01  0  0.4629E-01  0  0.6566E-01
   (  1, 94,113)  (  1, 73,131)  (  1, 95,112)  (  1,102,106)  (  1, 68,140)
  0  0.7588E-01  0  0.1013      0  0.1307      0  0.1417      0  0.1792    
   (  1, 67,141)  (  1, 68,140)  (  1, 69,139)  (  1, 68,140)  (  1,107,101)
  0  0.2103      0  0.2250      0  0.2431      0  0.2348      0  0.2616    
   (  1, 70,138)  (  1, 71,136)  (  1, 72,133)  (  1, 71,136)  (  1, 74,128)
  0  0.3342      0  0.3715      0  0.5102      0  0.6796      0  0.9022    
   (  1,107,101)  (  1, 66, 49)  (  1, 94,113)  (  1,102,106)  (  1, 95,112)
  0   1.113      0   1.658      0   2.080      0   3.449      0   5.606    
   (  1,107,101)  (  1,107,101)  (  1,102,106)  (  1, 96, 73)  (  1,103,105)
  1  0.3460      0  0.3136      0 -0.1405      0 -0.2119      0 -0.1527    
   (  1,107,101)  (  1,107,101)  (  1, 94,113)  (  1,107,101)  (  1,107,101)
  0  0.9771E-01  0  0.8862E-01  0 -0.8947E-01  0  0.6776E-01  0 -0.8760E-01
   (  1, 70,138)  (  1, 72,133)  (  1, 69,139)  (  1, 69,139)  (  1,107,101)
  0 -0.5822E-01  0 -0.5550E-01  0 -0.5442E-01  0 -0.4732E-01  0  0.4834E-01
   (  1, 68,140)  (  1, 71,136)  (  1, 70,138)  (  1, 67,141)  (  2,103,  8)
  0 -0.4473E-01  0 -0.3798E-01  0 -0.4014E-01  0 -0.3972E-01  0 -0.3621E-01
   (  1,107,101)  (  1, 67,141)  (  1, 71,136)  (  1, 72,132)  (  1, 68,140)
  0 -0.2194E-01  0 -0.1979E-01  0 -0.1676E-01  0 -0.1083E-01  0  0.1133E-01
   (  1, 72,133)  (  1, 71,134)  (  1, 95,112)  (  2, 66,142)  (  1, 60, 53)
  0 -0.6804E-02  0  0.8712E-02  0  0.5648E-02  0  0.5900E-02  0  0.4863E-02
   (  2, 66,142)  (  1, 94,113)  (  1, 94, 67)  (  1, 76, 67)  (  1, 65,143)
  1  0.5586E-02  0  0.7831E-02  0  0.9456E-02  0  0.1169E-01  0  0.1420E-01
   (  1, 66,142)  (  1, 94,113)  (  1, 66,142)  (  2, 65,143)  (  2, 66,142)
  0  0.1807E-01  0  0.2388E-01  0  0.3444E-01  0  0.4879E-01  0  0.5670E-01
   (  1, 94,113)  (  2, 66,142)  (  1, 95,112)  (  1,102,106)  (  1, 69,139)
  0  0.7731E-01  0  0.9054E-01  0  0.1269      0  0.1440      0  0.1831    
   (  1, 68,140)  (  1, 67,141)  (  1, 68,140)  (  1, 67,141)  (  1,107,101)
  0  0.2134      0  0.2282      0  0.2545      0  0.2431      0  0.2538    
   (  1, 95,112)  (  1, 68,140)  (  1, 69,139)  (  1, 70,138)  (  1, 69,139)
  0  0.3262      0  0.3712      0  0.4905      0  0.6788      0  0.9060    
   (  1,107,101)  (  1, 71,135)  (  1, 94,113)  (  1,102,106)  (  1, 95,112)
  0   1.121      0   1.663      0   2.088      0   3.368      0   5.409    
   (  1,107,101)  (  1,107,101)  (  1,102,106)  (  1, 96, 73)  (  1,103,105)
  1  0.3312      0  0.3163      0 -0.1422      0 -0.2103      0 -0.1400    
   (  1,107,101)  (  1,107,101)  (  1, 94,113)  (  1,107,101)  (  1,107,101)
  0 -0.9439E-01  0  0.1167      0  0.7960E-01  0 -0.6906E-01  0 -0.8475E-01
   (  1, 95,112)  (  1, 72,133)  (  1,107,101)  (  1, 71,135)  (  1,107,101)
  0  0.5562E-01  0 -0.6857E-01  0 -0.5894E-01  0 -0.4530E-01  0  0.4491E-01
   (  1, 70,137)  (  1, 70,138)  (  1, 69,139)  (  1, 68,140)  (  2,100,  9)
  0 -0.4243E-01  0 -0.5684E-01  0 -0.5377E-01  0  0.3303E-01  0 -0.2878E-01
   (  1, 68,140)  (  1, 67,141)  (  1, 68,140)  (  1,107,101)  (  1, 68,140)
  0 -0.2134E-01  0  0.1766E-01  0 -0.1718E-01  0  0.1090E-01  0  0.1133E-01
   (  1, 59,146)  (  1, 93, 66)  (  1, 95,112)  (  1, 77, 65)  (  1, 60, 53)
  0 -0.7104E-02  0  0.8304E-02  0  0.6127E-02  0 -0.6715E-02  0  0.1006E-01
   (  1, 60,146)  (  1, 94,113)  (  1, 77, 62)  (  1, 94,113)  (  1,103,105)
  1  0.5749E-02  0  0.7298E-02  0  0.6269E-02  0  0.1401E-01  0  0.1939E-01
   (  1,102,106)  (  1,102,106)  (  1,108, 90)  (  1,103,105)  (  1,102,106)
  0  0.1629E-01  0  0.2605E-01  0  0.3147E-01  0  0.6236E-01  0  0.5288E-01
   (  1, 75,126)  (  1,103,105)  (  1, 65,143)  (  1,102,106)  (  1,103,105)
  0  0.6310E-01  0  0.1003      0  0.1070      0  0.1297      0  0.1780    
   (  1, 68,140)  (  1, 69,139)  (  1, 70,138)  (  1, 67,141)  (  1, 68,140)
  0  0.2119      0  0.2461      0  0.2331      0  0.2400      0  0.2716    
   (  1,102,106)  (  1, 72,133)  (  1,103,105)  (  1, 70,138)  (  1,102,106)
  0  0.3100      0  0.3647      0  0.4143      0  0.7032      0  0.9132    
   (  1,107,101)  (  1,107,101)  (  1,108,100)  (  1,102,106)  (  1, 59, 56)
  0  0.9746      0   1.723      0   1.637      0   3.293      0   3.973    
   (  1,107,101)  (  1,107,101)  (  1, 67,141)  (  1, 69,139)  (  1, 60,146)
  1  0.3228      0  0.4096      0  0.1968      0 -0.2824      0 -0.1444    
   (  1,107,101)  (  1,107,101)  (  1, 69,139)  (  1,107,101)  (  1,107,101)
  0  0.7659E-01  0 -0.1011      0  0.7525E-01  0  0.7310E-01  0 -0.8053E-01
   (  1, 67,141)  (  1,102,106)  (  1, 93, 66)  (  1,102,106)  (  1,107,101)
  0 -0.8575E-01  0  0.7037E-01  0  0.9249E-01  0 -0.5938E-01  0 -0.8810E-01
   (  1, 68,140)  (  1, 68,140)  (  1,102,106)  (  1, 67,141)  (  1,102,106)
  0  0.4025E-01  0  0.5735E-01  0 -0.4364E-01  0 -0.4665E-01  0  0.2620E-01
   (  1,102,106)  (  1,102,106)  (  1, 71,134)  (  1, 72,132)  (  1,106,102)
  0  0.3422E-01  0 -0.2673E-01  0 -0.1677E-01  0  0.1942E-01  0 -0.9259E-02
   (  1,102,106)  (  1,102,106)  (  1, 65,143)  (  1,102,106)  (  2, 60,146)
  0 -0.1865E-01  0  0.6771E-02  0  0.9673E-02  0  0.6107E-02  0  0.6854E-02
   (  1,102,106)  (  1, 69, 56)  (  1,102,106)  (  1,103,105)  (  1,103,105)
  1  0.7248E-02  0  0.7359E-02  0  0.1128E-01  0  0.9428E-02  0  0.2378E-01
   (  1,102,106)  (  1,102,106)  (  1,103,105)  (  1, 76,125)  (  1,102,106)
  0  0.1761E-01  0  0.2594E-01  0  0.3118E-01  0  0.4795E-01  0  0.5396E-01
   (  2, 60,146)  (  1,103,105)  (  1,102,106)  (  1,102,106)  (  1,103,105)
  0  0.6501E-01  0  0.9664E-01  0  0.1136      0  0.1338      0  0.1592    
   (  1, 73,131)  (  1, 72,132)  (  1, 71,134)  (  1, 70,138)  (  1, 71,136)
  0  0.2349      0  0.2236      0  0.2466      0  0.2305      0  0.2904    
   (  1,102,106)  (  1, 67,141)  (  1, 68,140)  (  1, 69,139)  (  1, 68,140)
  0  0.3137      0  0.3592      0  0.4653      0  0.6178      0  0.9300    
   (  1,107,101)  (  1,107,101)  (  1,108,100)  (  1,102,106)  (  1, 60, 56)
  0   1.119      0   1.661      0   1.781      0   3.505      0   3.538    
   (  1,107,101)  (  1,107,101)  (  1,102,106)  (  1, 69,139)  (  1, 67,141)
  1  0.3229      0  0.4121      0  0.2092      0 -0.3016      0 -0.1558    
   (  1,107,101)  (  1,107,101)  (  1, 69,139)  (  1,107,101)  (  1,107,101)
  0  0.8417E-01  0  0.1047      0  0.7365E-01  0 -0.7638E-01  0 -0.8186E-01
   (  1,107,101)  (  1,107,101)  (  1, 93, 66)  (  1,103,105)  (  1,107,101)
  0 -0.8892E-01  0  0.5903E-01  0  0.9857E-01  0  0.4682E-01  0 -0.8435E-01
   (  1, 68,140)  (  1, 68,140)  (  1,102,106)  (  2,100,  9)  (  1,102,106)
  0 -0.5030E-01  0  0.6596E-01  0  0.3433E-01  0 -0.4250E-01  0  0.2582E-01
   (  1, 71,136)  (  1,102,106)  (  1,107,101)  (  1,102,106)  (  1,102,106)
  0  0.3093E-01  0 -0.2586E-01  0 -0.1529E-01  0  0.2201E-01  0 -0.9033E-02
   (  1,102,106)  (  1,102,106)  (  1,102,106)  (  1,102,106)  (  2, 60,146)
  0 -0.1706E-01  0  0.6750E-02  0  0.1030E-01  0  0.6277E-02  0  0.7326E-02
   (  1,102,106)  (  1, 69, 56)  (  1,102,106)  (  1,103,105)  (  1,103,105)
  1  0.7560E-02  0  0.7328E-02  0  0.1175E-01  0  0.9356E-02  0  0.2336E-01
   (  1,102,106)  (  1,102,106)  (  1,103,105)  (  1, 76,125)  (  1,102,106)
  0  0.1743E-01  0  0.2599E-01  0  0.3065E-01  0  0.4896E-01  0  0.5479E-01
   (  2, 60,146)  (  1,103,105)  (  1,102,106)  (  1,102,106)  (  1, 59,146)
  0  0.6600E-01  0  0.9800E-01  0  0.1090      0  0.1443      0  0.1639    
   (  2, 68,140)  (  1,102,106)  (  1, 71,134)  (  1, 72,132)  (  1, 71,136)
  0  0.2354      0  0.2109      0  0.2521      0  0.2378      0  0.2873    
   (  1,102,106)  (  1, 67,141)  (  1,103,105)  (  1, 69,139)  (  1, 68,140)
  0  0.3065      0  0.3506      0  0.4601      0  0.6137      0  0.9310    
   (  1,107,101)  (  1,103,105)  (  1,108,100)  (  1,102,106)  (  1, 60, 56)
  0   1.134      0   1.667      0   1.852      0   3.638      0   3.457    
   (  1,107,101)  (  1,107,101)  (  1,102,106)  (  1, 69,139)  (  1, 67,141)
  1  0.2988      0  0.4272      0  0.2085      0 -0.2993      0 -0.1566    
   (  1,107,101)  (  1,107,101)  (  1, 69,139)  (  1,107,101)  (  1,107,101)
  0  0.8494E-01  0  0.1060      0  0.7113E-01  0 -0.7010E-01  0 -0.8310E-01
   (  1,107,101)  (  1,107,101)  (  1, 93, 66)  (  1,103,105)  (  1,107,101)
  0 -0.8505E-01  0  0.4335E-01  0  0.1012      0  0.4577E-01  0 -0.8304E-01
   (  1, 68,140)  (  2,107,  7)  (  1,102,106)  (  2,100,  9)  (  1,102,106)
  0 -0.4942E-01  0  0.7264E-01  0  0.3571E-01  0 -0.4084E-01  0  0.2568E-01
   (  1, 71,136)  (  1,102,106)  (  1,107,101)  (  1,102,106)  (  1,102,106)
  0  0.2959E-01  0 -0.2634E-01  0 -0.1438E-01  0  0.2156E-01  0 -0.9467E-02
   (  1,102,106)  (  1,102,106)  (  1, 65,143)  (  1,102,106)  (  2, 60,146)
  0 -0.1712E-01  0  0.6709E-02  0  0.1048E-01  0  0.6272E-02  0  0.7399E-02
   (  1,102,106)  (  1, 69, 56)  (  1,102,106)  (  1,103,105)  (  1,103,105)
  1  0.7911E-02  0  0.7461E-02  0  0.1169E-01  0  0.9155E-02  0  0.2318E-01
   (  1,102,106)  (  1,102,106)  (  1,103,105)  (  1, 76,125)  (  1,102,106)
  0  0.1744E-01  0  0.2594E-01  0  0.2978E-01  0  0.4885E-01  0  0.5603E-01
   (  2, 60,146)  (  1,103,105)  (  1,102,106)  (  1,102,106)  (  1, 59,146)
  0  0.6643E-01  0  0.9628E-01  0  0.1174      0  0.1375      0  0.1615    
   (  2, 68,140)  (  1,102,106)  (  1, 70,138)  (  1, 71,136)  (  1, 72,132)
  0  0.2394      0  0.2166      0  0.2515      0  0.2272      0  0.2739    
   (  1,102,106)  (  1, 68,140)  (  1,103,105)  (  1, 71,134)  (  1,102,106)
  0  0.3050      0  0.3470      0  0.4564      0  0.6041      0  0.9057    
   (  1,107,101)  (  1,103,105)  (  1, 68,140)  (  1,102,106)  (  1, 60, 56)
  0   1.046      0   1.587      0   1.781      0   3.326      0   3.709    
   (  1,107,101)  (  1,107,101)  (  1,102,106)  (  1, 66,142)  (  1, 60,146)
  1  0.3519      0  0.3613      0  0.1706      0 -0.2858      0 -0.1255    
   (  1,107,101)  (  1,107,101)  (  1, 69,139)  (  1,107,101)  (  1,107,101)
  0  0.9287E-01  0  0.1017      0  0.7051E-01  0  0.8059E-01  0 -0.7858E-01
   (  1, 67,141)  (  1,107,101)  (  1, 93, 66)  (  1, 68,140)  (  1,107,101)
  0 -0.7552E-01  0  0.4264E-01  0  0.9950E-01  0  0.4712E-01  0 -0.8517E-01
   (  1,102,106)  (  2,107,  7)  (  1,102,106)  (  2,100,  9)  (  1,102,106)
  0  0.4260E-01  0  0.5405E-01  0 -0.4736E-01  0 -0.3685E-01  0  0.2530E-01
   (  1,102,106)  (  1,102,106)  (  1, 70,138)  (  1, 71,134)  (  1,102,106)
  0  0.2916E-01  0 -0.2621E-01  0 -0.1523E-01  0  0.2113E-01  0 -0.9147E-02
   (  1,102,106)  (  1,102,106)  (  1, 65,143)  (  1,102,106)  (  2, 60,146)
  0 -0.1672E-01  0  0.6758E-02  0  0.1015E-01  0  0.6107E-02  0  0.7686E-02
   (  1,102,106)  (  1, 69, 56)  (  1,102,106)  (  1,103,105)  (  1,103,105)
  1  0.7843E-02  0  0.7291E-02  0  0.1157E-01  0  0.9898E-02  0  0.2295E-01
   (  1,102,106)  (  1,102,106)  (  1,103,105)  (  1, 68,140)  (  1,102,106)
  0  0.1688E-01  0  0.2530E-01  0  0.3011E-01  0  0.4992E-01  0  0.5646E-01
   (  2, 60,146)  (  1,103,105)  (  1, 65,143)  (  1,102,106)  (  1, 59,146)
  0  0.6521E-01  0  0.9150E-01  0  0.1170      0  0.1305      0  0.1537    
   (  2, 68,140)  (  1, 71,134)  (  1, 70,138)  (  1, 69,139)  (  2, 67,141)
  0  0.2419      0  0.2115      0  0.2516      0  0.2349      0  0.2738    
   (  1,102,106)  (  1, 68,140)  (  1,103,105)  (  1, 71,134)  (  1,102,106)
  0  0.3064      0  0.3460      0  0.4585      0  0.6037      0  0.9008    
   (  1,107,101)  (  1,103,105)  (  1, 68,140)  (  1,102,106)  (  1, 60, 56)
  0   1.054      0   1.577      0   1.800      0   3.361      0   3.695    
   (  1,107,101)  (  1,107,101)  (  1,102,106)  (  1, 66,142)  (  1,103,105)
  1  0.3385      0  0.3623      0  0.1787      0 -0.2793      0 -0.1278    
   (  1,107,101)  (  1,107,101)  (  1, 69,139)  (  1,107,101)  (  1,107,101)
  0  0.8462E-01  0  0.1019      0  0.7005E-01  0  0.8169E-01  0 -0.7868E-01
   (  1, 67,141)  (  1,107,101)  (  1, 93, 66)  (  1, 68,140)  (  1,107,101)
  0 -0.7673E-01  0  0.4303E-01  0  0.9822E-01  0  0.4721E-01  0 -0.8498E-01
   (  1,102,106)  (  2,107,  7)  (  1,102,106)  (  2,100,  9)  (  1,102,106)
  0  0.5140E-01  0  0.4657E-01  0 -0.3963E-01  0 -0.3376E-01  0 -0.3398E-01
   (  1,102,106)  (  1,102,106)  (  1,102,106)  (  1, 71,134)  (  1, 70,137)
  0 -0.2882E-01  0 -0.2490E-01  0 -0.1522E-01  0  0.2025E-01  0 -0.8744E-02
   (  1, 69,139)  (  1,102,106)  (  1, 65,143)  (  1,102,106)  (  2, 60,146)
  0 -0.1650E-01  0  0.6768E-02  0  0.1004E-01  0  0.5846E-02  0  0.7466E-02
   (  1,102,106)  (  1, 69, 56)  (  1,102,106)  (  1,103,105)  (  1,103,105)

 MAXIMUM RESIDUAL FOR EACH ITERATION (1 INDICATES THE FIRST INNER ITERATION):

    RESIDUAL       RESIDUAL       RESIDUAL       RESIDUAL       RESIDUAL    
   LAYER,ROW,COL  LAYER,ROW,COL  LAYER,ROW,COL  LAYER,ROW,COL  LAYER,ROW,COL
 ---------------------------------------------------------------------------
  1 -0.6740E+08  0  0.5925E+08  0 -0.3019E+08  0 -0.1638E+08  0  0.1047E+08
   (  1, 60,146)  (  1, 68,140)  (  1, 68,140)  (  1, 60,146)  (  1, 38,135)
  0 -0.6854E+07  0  0.4209E+07  0 -0.3226E+07  0 -0.2054E+07  0  0.2216E+07
   (  1, 61,145)  (  1, 68,140)  (  1, 68,140)  (  1, 61,145)  (  1, 67,141)
  0 -0.2266E+07  0  0.2732E+07  0 -0.1824E+07  0  0.2519E+07  0 -0.2461E+07
   (  1, 65,143)  (  1, 65,143)  (  1, 65,143)  (  2, 65,143)  (  2, 65,143)
  0  0.1131E+07  0  0.1859E+07  0 -0.2801E+07  0  0.1992E+07  0 -0.1286E+07
   (  1, 67,141)  (  2, 65,143)  (  2, 65,143)  (  2, 65,143)  (  2, 65,143)
  0 -0.1129E+07  0  0.1086E+07  0 -0.8181E+06  0 -0.6105E+06  0 -0.5015E+06
   (  2, 66,142)  (  2, 66,142)  (  2, 66,142)  (  2, 67,141)  (  2,136, 76)
  0  0.4551E+06  0 -0.2931E+06  0  0.2473E+06  0  0.1670E+06  0  0.1079E+06
   (  2,136, 76)  (  2,136, 76)  (  2,124, 84)  (  1, 51,138)  (  2,124, 84)
  1 -0.9837E+05  0  0.8414E+05  0  0.9927E+05  0  0.5108E+05  0 -0.4402E+05
   (  2,118, 90)  (  2,118, 90)  (  2,119, 89)  (  2,118, 90)  (  2,118, 90)
  0  0.3614E+05  0 -0.2618E+05  0 -0.1786E+05  0  0.2487E+05  0 -0.1773E+05
   (  2,118, 90)  (  2,118, 90)  (  2,117, 91)  (  2,117, 91)  (  2,117, 91)
  0  0.1331E+05  0 -0.1049E+05  0  -8254.      0  -5525.      0   6021.    
   (  2,117, 91)  (  2,124, 84)  (  2,116, 92)  (  2, 65,143)  (  2, 65,143)
  0  -4643.      0   3693.      0  -3584.      0   2237.      0  -2088.    
   (  2, 65,143)  (  2,127, 82)  (  2, 68,140)  (  2, 68,140)  (  2,130, 80)
  0  -1810.      0   2188.      0  -2486.      0   2749.      0  -2919.    
   (  2, 69,139)  (  2, 69,139)  (  2, 69,139)  (  2, 69,139)  (  2, 69,139)
[...]
       -999.0      -999.0      -999.0      -999.0      -999.0      -999.0      -999.0      -999.0      -999.0      -999.0    
       -999.0      -999.0      -999.0      -999.0      -999.0      -999.0      -999.0      -999.0      -999.0      -999.0    
       -999.0      -999.0      -999.0      -999.0      -999.0      -999.0      -999.0      -999.0      -999.0      -999.0    
 146   -999.0      -999.0      -999.0      -999.0      -999.0      -999.0      -999.0      -999.0      -999.0      -999.0    
       -999.0      -999.0      -999.0      -999.0      -999.0      -999.0      -999.0      -999.0      -999.0      -999.0    
       -999.0      -999.0      -999.0      -999.0      -999.0      -999.0      -999.0      -999.0      -999.0      -999.0    
       -999.0      -999.0      -999.0      -999.0      -999.0      -999.0      -999.0      -999.0      -999.0      -999.0    
       -999.0      -999.0      -999.0      -999.0      -999.0      -999.0      -999.0      -999.0      -999.0      -999.0    
       -999.0      -999.0      -999.0      -999.0      -999.0      -999.0      -999.0      -999.0      -999.0      -999.0    
       -999.0      -999.0      -999.0      -999.0      -999.0      -999.0      -999.0      -999.0      -999.0      -999.0    
       -999.0      -999.0      -999.0      -999.0      -999.0      -999.0      -999.0      -999.0      -999.0      -999.0    
       -999.0      -999.0      -999.0      -999.0      -999.0      -999.0      -999.0      -999.0      -999.0      -999.0    
       -999.0      -999.0      -999.0      -999.0      -999.0      -999.0      -999.0      -999.0      -999.0      -999.0    
       -999.0      -999.0      -999.0      -999.0      -999.0      -999.0      -999.0      -999.0      -999.0      -999.0    
       -999.0      -999.0      -999.0      -999.0      -999.0      -999.0      -999.0      -999.0      -999.0      -999.0    
       -999.0      -999.0      -999.0      -999.0      -999.0      -999.0      -999.0      -999.0      -999.0      -999.0    
       -999.0      -999.0      -999.0      -999.0      -999.0      -999.0      -999.0      -999.0      -999.0      -999.0    
       -999.0      -999.0      -999.0      -999.0      -999.0      -999.0      -999.0      -999.0      -999.0      -999.0    
 147   -999.0      -999.0      -999.0      -999.0      -999.0      -999.0      -999.0      -999.0      -999.0      -999.0    
       -999.0      -999.0      -999.0      -999.0      -999.0      -999.0      -999.0      -999.0      -999.0      -999.0    
       -999.0      -999.0      -999.0      -999.0      -999.0      -999.0      -999.0      -999.0      -999.0      -999.0    
       -999.0      -999.0      -999.0      -999.0      -999.0      -999.0      -999.0      -999.0      -999.0      -999.0    
       -999.0      -999.0      -999.0      -999.0      -999.0      -999.0      -999.0      -999.0      -999.0      -999.0    
       -999.0      -999.0      -999.0      -999.0      -999.0      -999.0      -999.0      -999.0      -999.0      -999.0    
       -999.0      -999.0      -999.0      -999.0      -999.0      -999.0      -999.0      -999.0      -999.0      -999.0    
       -999.0      -999.0      -999.0      -999.0      -999.0      -999.0      -999.0      -999.0      -999.0      -999.0    
       -999.0      -999.0      -999.0      -999.0      -999.0      -999.0      -999.0      -999.0      -999.0      -999.0    
       -999.0      -999.0      -999.0      -999.0      -999.0      -999.0      -999.0      -999.0      -999.0      -999.0    
       -999.0      -999.0      -999.0      -999.0      -999.0      -999.0      -999.0      -999.0      -999.0      -999.0    
       -999.0      -999.0      -999.0      -999.0      -999.0      -999.0      -999.0      -999.0      -999.0      -999.0    
       -999.0      -999.0      -999.0      -999.0      -999.0      -999.0      -999.0      -999.0      -999.0      -999.0    
       -999.0      -999.0      -999.0      -999.0      -999.0      -999.0      -999.0      -999.0      -999.0      -999.0    
       -999.0      -999.0      -999.0      -999.0      -999.0      -999.0      -999.0      -999.0      -999.0      -999.0    
 148   -999.0      -999.0      -999.0      -999.0      -999.0      -999.0      -999.0      -999.0      -999.0      -999.0    
       -999.0      -999.0      -999.0      -999.0      -999.0      -999.0      -999.0      -999.0      -999.0      -999.0    
       -999.0      -999.0      -999.0      -999.0      -999.0      -999.0      -999.0      -999.0      -999.0      -999.0    
       -999.0      -999.0      -999.0      -999.0      -999.0      -999.0      -999.0      -999.0      -999.0      -999.0    
       -999.0      -999.0      -999.0      -999.0      -999.0      -999.0      -999.0      -999.0      -999.0      -999.0    
       -999.0      -999.0      -999.0      -999.0      -999.0      -999.0      -999.0      -999.0      -999.0      -999.0    
       -999.0      -999.0      -999.0      -999.0      -999.0      -999.0      -999.0      -999.0      -999.0      -999.0    
       -999.0      -999.0      -999.0      -999.0      -999.0      -999.0      -999.0      -999.0      -999.0      -999.0    
       -999.0      -999.0      -999.0      -999.0      -999.0      -999.0      -999.0      -999.0      -999.0      -999.0    
       -999.0      -999.0      -999.0      -999.0      -999.0      -999.0      -999.0      -999.0      -999.0      -999.0    
       -999.0      -999.0      -999.0      -999.0      -999.0      -999.0      -999.0      -999.0      -999.0      -999.0    
       -999.0      -999.0      -999.0      -999.0      -999.0      -999.0      -999.0      -999.0      -999.0      -999.0    
       -999.0      -999.0      -999.0      -999.0      -999.0      -999.0      -999.0      -999.0      -999.0      -999.0    
       -999.0      -999.0      -999.0      -999.0      -999.0      -999.0      -999.0      -999.0      -999.0      -999.0    
       -999.0      -999.0      -999.0      -999.0      -999.0      -999.0      -999.0      -999.0      -999.0      -999.0    
 149   -999.0      -999.0      -999.0      -999.0      -999.0      -999.0      -999.0      -999.0      -999.0      -999.0    
       -999.0      -999.0      -999.0      -999.0      -999.0      -999.0      -999.0      -999.0      -999.0      -999.0    
       -999.0      -999.0      -999.0      -999.0      -999.0      -999.0      -999.0      -999.0      -999.0      -999.0    
       -999.0      -999.0      -999.0      -999.0      -999.0      -999.0      -999.0      -999.0      -999.0      -999.0    
       -999.0      -999.0      -999.0      -999.0      -999.0      -999.0      -999.0      -999.0      -999.0      -999.0    
       -999.0      -999.0      -999.0      -999.0      -999.0      -999.0      -999.0      -999.0      -999.0      -999.0    
       -999.0      -999.0      -999.0      -999.0      -999.0      -999.0      -999.0      -999.0      -999.0      -999.0    
       -999.0      -999.0      -999.0      -999.0      -999.0      -999.0      -999.0      -999.0      -999.0      -999.0    
       -999.0      -999.0      -999.0      -999.0      -999.0      -999.0      -999.0      -999.0      -999.0      -999.0    
       -999.0      -999.0      -999.0      -999.0      -999.0      -999.0      -999.0      -999.0      -999.0      -999.0    
       -999.0      -999.0      -999.0      -999.0      -999.0      -999.0      -999.0      -999.0      -999.0      -999.0    
       -999.0      -999.0      -999.0      -999.0      -999.0      -999.0      -999.0      -999.0      -999.0      -999.0    
       -999.0      -999.0      -999.0      -999.0      -999.0      -999.0      -999.0      -999.0      -999.0      -999.0    
       -999.0      -999.0      -999.0      -999.0      -999.0      -999.0      -999.0      -999.0      -999.0      -999.0    
       -999.0      -999.0      -999.0      -999.0      -999.0      -999.0      -999.0      -999.0      -999.0      -999.0    
 150   -999.0      -999.0      -999.0      -999.0      -999.0      -999.0      -999.0      -999.0      -999.0      -999.0    
       -999.0      -999.0      -999.0      -999.0      -999.0      -999.0      -999.0      -999.0      -999.0      -999.0    
       -999.0      -999.0      -999.0      -999.0      -999.0      -999.0      -999.0      -999.0      -999.0      -999.0    
       -999.0      -999.0      -999.0      -999.0      -999.0      -999.0      -999.0      -999.0      -999.0      -999.0    
       -999.0      -999.0      -999.0      -999.0      -999.0      -999.0      -999.0      -999.0      -999.0      -999.0    
       -999.0      -999.0      -999.0      -999.0      -999.0      -999.0      -999.0      -999.0      -999.0      -999.0    
       -999.0      -999.0      -999.0      -999.0      -999.0      -999.0      -999.0      -999.0      -999.0      -999.0    
       -999.0      -999.0      -999.0      -999.0      -999.0      -999.0      -999.0      -999.0      -999.0      -999.0    
       -999.0      -999.0      -999.0      -999.0      -999.0      -999.0      -999.0      -999.0      -999.0      -999.0    
       -999.0      -999.0      -999.0      -999.0      -999.0      -999.0      -999.0      -999.0      -999.0      -999.0    
       -999.0      -999.0      -999.0      -999.0      -999.0      -999.0      -999.0      -999.0      -999.0      -999.0    
       -999.0      -999.0      -999.0      -999.0      -999.0      -999.0      -999.0      -999.0      -999.0      -999.0    
       -999.0      -999.0      -999.0      -999.0      -999.0      -999.0      -999.0      -999.0      -999.0      -999.0    
       -999.0      -999.0      -999.0      -999.0      -999.0      -999.0      -999.0      -999.0      -999.0      -999.0    
       -999.0      -999.0      -999.0      -999.0      -999.0      -999.0      -999.0      -999.0      -999.0      -999.0    

 HEAD WILL BE SAVED ON UNIT   51 AT END OF TIME STEP    1, STRESS PERIOD    1
1
  VOLUMETRIC BUDGET FOR ENTIRE MODEL AT END OF TIME STEP    1, STRESS PERIOD   1
  ------------------------------------------------------------------------------

     CUMULATIVE VOLUMES      L**3       RATES FOR THIS TIME STEP      L**3/T
     ------------------                 ------------------------

           IN:                                      IN:
           ---                                      ---
             STORAGE =           0.0000               STORAGE =           0.0000
       CONSTANT HEAD =           0.0000         CONSTANT HEAD =           0.0000
               WELLS =           0.0000                 WELLS =           0.0000
            RECHARGE =      173991.1875              RECHARGE =      173991.1875

            TOTAL IN =      173991.1875              TOTAL IN =      173991.1875

          OUT:                                     OUT:
          ----                                     ----
             STORAGE =           0.0000               STORAGE =           0.0000
       CONSTANT HEAD =           0.0000         CONSTANT HEAD =           0.0000
               WELLS =      123167.3125                 WELLS =      123167.3125
            RECHARGE =           0.0000              RECHARGE =           0.0000

           TOTAL OUT =      123167.3125             TOTAL OUT =      123167.3125

            IN - OUT =       50823.8750              IN - OUT =       50823.8750

 PERCENT DISCREPANCY =          34.21     PERCENT DISCREPANCY =          34.21






         TIME SUMMARY AT END OF TIME STEP    1 IN STRESS PERIOD    1
                    SECONDS     MINUTES      HOURS       DAYS        YEARS
                    -----------------------------------------------------------
   TIME STEP LENGTH  86400.      1440.0      24.000     1.00000     2.73785E-03
 STRESS PERIOD TIME  86400.      1440.0      24.000     1.00000     2.73785E-03
         TOTAL TIME  86400.      1440.0      24.000     1.00000     2.73785E-03
1
 FAILURE TO MEET SOLVER CONVERGENCE CRITERIA
 BUDGET PERCENT DISCREPANCY IS   34.2066
 STOPPING SIMULATION

 HEAD AND DRAWDOWN OBSERVATIONS
 OBSERVATION       OBSERVED           SIMULATED
   NAME              VALUE              VALUE             DIFFERENCE
 --------------------------------------------------------------------
 hed1            313.02960205        520.43127441       -207.40167236    
 hed2            193.73089600        520.40283203       -326.67193604    
 hed3            164.86630249        520.42553711       -355.55923462    
 hed4            153.61920166        520.41400146       -366.79479980    
 hed5            22.494199753        520.36004639       -497.86584473    
 hed6            19.872999191        520.31854248       -500.44555664    
 hed7            12.801600456        520.23419189       -507.43258667    
 hed8            11.277600288        520.29754639       -509.01995850    
 hed9            10.911800385        520.24035645       -509.32855225    
 hed10           10.058400154        520.29052734       -510.23211670    
 hed11           9.8145999908        520.24395752       -510.42935181    
 hed12           9.7536001205        520.20007324       -510.44647217    
 hed13           9.5706996918        520.23986816       -510.66915894    
 hed14           9.5097999573        520.24273682       -510.73294067    
 hed15           9.4488000870        520.29608154       -510.84729004    
 hed16           9.4488000870        520.22723389       -510.77844238    
 hed17           9.4488000870        520.23291016       -510.78411865    
 hed18           9.4182996750        520.23358154       -510.81527710    
 hed19           9.3878002167        520.21826172       -510.83047485    
 hed20           9.3878002167        520.23712158       -510.84933472    
 hed21           9.3268995285        520.24194336       -510.91503906    
 hed22           9.2658996582        520.15063477       -510.88473511    
 hed23           9.2354001999        520.23413086       -510.99871826    
 hed24           9.2049999237        520.21350098       -511.00851440    
 hed25           9.1745004654        520.26824951       -511.09375000    
 hed26           9.1745004654        520.23687744       -511.06237793    
 hed27           9.1440000534        520.25292969       -511.10891724    
 hed28           9.1440000534        520.23291016       -511.08889771    
 hed29           9.1440000534        520.22283936       -511.07882690    
 hed30           9.0830001831        520.23468018       -511.15167236    
 hed31           9.0830001831        520.23474121       -511.15173340    
 hed32           9.0525999069        520.23663330       -511.18402100    
 hed33           9.0221004486        520.24499512       -511.22290039    
 hed34           9.0221004486        520.23706055       -511.21496582    
 hed35           9.0221004486        520.23181152       -511.20971680    
 hed36           8.9610996246        520.23071289       -511.26962280    
 hed37           8.8697004318        520.21539307       -511.34570312    
 hed38           8.8697004318        520.22973633       -511.36004639    
 hed39           8.8392000198        520.21588135       -511.37667847    
 hed40           8.7782001495        520.23986816       -511.46166992    
 hed41           8.7782001495        520.21685791       -511.43865967    
 hed42           8.6868000031        520.22589111       -511.53909302    
 hed43           8.6562995911        520.23205566       -511.57574463    
 hed44           8.6258001328        520.21649170       -511.59069824    
 hed45           8.5953998566        520.22894287       -511.63354492    
 hed46           8.5953998566        520.23168945       -511.63629150    
 hed47           8.5953998566        520.23291016       -511.63751221    
 hed48           8.5343999863        520.20007324       -511.66567993    
 hed49           8.4734001160        520.24664307       -511.77325439    
 hed50           8.4734001160        520.21575928       -511.74237061    
 hed51           8.4734001160        520.21386719       -511.74047852    
 hed52           8.4429998398        520.21594238       -511.77294922    
 hed53           8.4429998398        520.22845459       -511.78546143    
 hed54           8.4125003815        520.23339844       -511.82089233    
 hed55           8.4125003815        520.24285889       -511.83035278    
 hed56           8.3819999695        520.24121094       -511.85922241    
 hed57           8.2905998230        520.21887207       -511.92828369    
 hed58           8.2905998230        520.22381592       -511.93322754    
 hed59           8.2601003647        520.22033691       -511.96023560    
 hed60           8.2295999527        520.22967529       -512.00006104    
 hed61           8.1990995407        520.20007324       -512.00097656    
 hed62           8.0771999359        520.22424316       -512.14703369    
 hed63           8.0466995239        520.24780273       -512.20111084    
 hed64           7.9552998543        520.21685791       -512.26153564    
 hed65           7.9247999191        520.25531006       -512.33050537    
 hed66           7.9247999191        520.21685791       -512.29205322    
 hed67           7.9247999191        520.24090576       -512.31610107    
 hed68           7.8942999840        520.21685791       -512.32257080    
 hed69           7.8942999840        520.21685791       -512.32257080    
 hed70           7.8942999840        520.21612549       -512.32183838    
 hed71           7.8638000488        520.23748779       -512.37365723    
 hed72           7.8028998375        520.22760010       -512.42468262    
 hed73           7.8028998375        520.21685791       -512.41394043    
 hed74           7.5894999504        520.21551514       -512.62603760    
 hed75           7.1932997704        520.20007324       -513.00677490    
 hed76           7.1932997704        520.20007324       -513.00677490    
 hed77           7.1017999649        520.20007324       -513.09826660    
 hed78           7.0714001656        520.23229980       -513.16088867    
 hed79           6.8579998016        520.21661377       -513.35864258    
 hed80           6.8550000191        520.30364990       -513.44866943    
 hed81           6.7969999313        520.26275635       -513.46575928    
 hed82           6.6750998497        520.25128174       -513.57617188    
 hed83           6.5866999626        520.29315186       -513.70648193    
 hed84           6.4008002281        520.20922852       -513.80841064    
 hed85           6.1996002197        520.25451660       -514.05493164    
 hed86           5.8522000313        520.22607422       -514.37390137    
 hed87           5.8429999352        520.21722412       -514.37420654    
 hed88           5.7912001610        520.23156738       -514.44036865    
 hed89           4.8768000603        520.26409912       -515.38732910    
 hed90           4.0843000412        520.23077393       -516.14648438    
 hed91           3.9502000809        520.32415771       -516.37396240    
 hed92           3.9319000244        520.22711182       -516.29522705    
 hed93           1.8287999630        520.21948242       -518.39068604    
 hed94           1.1277999878        520.22222900       -519.09442139    
 hed95           1.0973000526        520.22033691       -519.12304688    
 hed96           1.0973000526        520.22222900       -519.12493896    
 hed97          0.91439998150        520.20007324       -519.28564453    
 hed98          0.88389998674        520.22290039       -519.33898926    
 hed99          0.45719999075        520.23486328       -519.77764893    
 hed100         0.45719999075        520.22894287       -519.77172852    
 hed101         0.12189999968        520.23126221       -520.10937500    
 hed102         9.13999974728E-02    520.22711182       -520.13574219    

 HEAD/DRAWDOWN SUM OF SQUARED DIFFERENCE:    2.61481E+07

 Run end date and time (yyyy/mm/dd hh:mm:ss): 2018/04/24 22:16:29
 Elapsed run time:  1.427 Seconds

