                                  MODFLOW-2005     
      U.S. GEOLOGICAL SURVEY MODULAR FINITE-DIFFERENCE GROUND-WATER FLOW MODEL
                            VERSION 1.11.00 8/8/2013

 LIST FILE: test_no_5.list
                         UNIT    2

 OPENING test_no_5.dis
 FILE TYPE:DIS   UNIT   11   STATUS:OLD    
 FORMAT:FORMATTED              ACCESS:SEQUENTIAL          

 OPENING test_no_5.bas
 FILE TYPE:BAS6   UNIT   13   STATUS:OLD    
 FORMAT:FORMATTED              ACCESS:SEQUENTIAL          

 OPENING test_no_5.lpf
 FILE TYPE:LPF   UNIT   15   STATUS:OLD    
 FORMAT:FORMATTED              ACCESS:SEQUENTIAL          

 OPENING test_no_5.rch
 FILE TYPE:RCH   UNIT   19   STATUS:OLD    
 FORMAT:FORMATTED              ACCESS:SEQUENTIAL          

 OPENING test_no_5.hob
 FILE TYPE:HOB   UNIT   39   STATUS:OLD    
 FORMAT:FORMATTED              ACCESS:SEQUENTIAL          

 OPENING test_no_5.pcg
 FILE TYPE:PCG   UNIT   27   STATUS:OLD    
 FORMAT:FORMATTED              ACCESS:SEQUENTIAL          

 OPENING test_no_5.oc
 FILE TYPE:OC   UNIT   14   STATUS:OLD    
 FORMAT:FORMATTED              ACCESS:SEQUENTIAL          

 OPENING test_no_5.wel
 FILE TYPE:WEL   UNIT   20   STATUS:OLD    
 FORMAT:FORMATTED              ACCESS:SEQUENTIAL          

 OPENING test_no_5.cbc
 FILE TYPE:DATA(BINARY)   UNIT   40   STATUS:REPLACE
 FORMAT:BINARY                 ACCESS:SEQUENTIAL          

 OPENING test_no_5.hob.out
 FILE TYPE:DATA   UNIT    7   STATUS:UNKNOWN
 FORMAT:FORMATTED              ACCESS:SEQUENTIAL          

 OPENING test_no_5.hds
 FILE TYPE:DATA(BINARY)   UNIT   51   STATUS:REPLACE
 FORMAT:BINARY                 ACCESS:SEQUENTIAL          

 BAS -- BASIC PACKAGE, VERSION 7, 5/2/2005 INPUT READ FROM UNIT   13
 
 MODFLOW was compiled using mixed precision
 Precision of REAL variables:           6
 Precision of DOUBLE PRECISION variables:          15

 DISCRETIZATION INPUT DATA READ FROM UNIT   11
 # DIS package for  MODFLOW-2005, generated by Flopy.
    1 LAYERS       100 ROWS       100 COLUMNS
    1 STRESS PERIOD(S) IN SIMULATION
 MODEL TIME UNIT IS DAYS
 MODEL LENGTH UNIT IS METERS
  Confining bed flag for each layer:
   0



                               DELR
 READING ON UNIT   11 WITH FORMAT: (100E15.6)          



                               DELC
 READING ON UNIT   11 WITH FORMAT: (100E15.6)          



           TOP ELEVATION OF LAYER 1
 READING ON UNIT   11 WITH FORMAT: (FREE)              



             MODEL LAYER BOTTOM EL. FOR LAYER   1
 READING ON UNIT   11 WITH FORMAT: (FREE)              


 STRESS PERIOD     LENGTH       TIME STEPS     MULTIPLIER FOR DELT    SS FLAG
 ----------------------------------------------------------------------------
        1        1.0000000          1                    1.000         SS

 STEADY-STATE SIMULATION



 
 # BAS6 package for  MODFLOW-2005, generated by Flopy.                           
 THE FREE FORMAT OPTION HAS BEEN SELECTED



                     BOUNDARY ARRAY FOR LAYER   1
 READING ON UNIT   13 WITH FORMAT: (FREE)              

 AQUIFER HEAD WILL BE SET TO  -999.00     AT ALL NO-FLOW NODES (IBOUND=0).



                       INITIAL HEAD FOR LAYER   1
 READING ON UNIT   13 WITH FORMAT: (FREE)              
 # OC package for  MODFLOW-2005, generated by Flopy.

 OUTPUT CONTROL IS SPECIFIED ONLY AT TIME STEPS FOR WHICH OUTPUT IS DESIRED
 COMPACT CELL-BY-CELL BUDGET FILES WILL BE WRITTEN
 AUXILIARY DATA WILL BE SAVED IN CELL-BY-CELL BUDGET FILES
 HEAD PRINT FORMAT CODE IS   0    DRAWDOWN PRINT FORMAT CODE IS   0
 HEADS WILL BE SAVED ON UNIT   51    DRAWDOWNS WILL BE SAVED ON UNIT    0

 LPF -- LAYER-PROPERTY FLOW PACKAGE, VERSION 7, 5/2/2005
         INPUT READ FROM UNIT   15
 # LPF package for  MODFLOW-2005, generated by Flopy.
 CELL-BY-CELL FLOWS WILL BE SAVED ON UNIT   40
 HEAD AT CELLS THAT CONVERT TO DRY=  -888.00    
 No named parameters

   LAYER FLAGS:
 LAYER       LAYTYP        LAYAVG         CHANI        LAYVKA        LAYWET
 ---------------------------------------------------------------------------
    1             1             0    -1.000E+00             1             0

   INTERPRETATION OF LAYER FLAGS:
                        INTERBLOCK     HORIZONTAL    DATA IN
         LAYER TYPE   TRANSMISSIVITY   ANISOTROPY   ARRAY VKA   WETTABILITY
 LAYER      (LAYTYP)      (LAYAVG)       (CHANI)      (LAYVKA)      (LAYWET)
 ---------------------------------------------------------------------------
    1   CONVERTIBLE      HARMONIC      VARIABLE    ANISOTROPY  NON-WETTABLE

 WETTING CAPABILITY IS NOT ACTIVE IN ANY LAYER



              HYD. COND. ALONG ROWS FOR LAYER   1
 READING ON UNIT   15 WITH FORMAT: (FREE)              

   HORIZ. ANI. (COL./ROW) =  1.000000     FOR LAYER   1

  HORIZ. TO VERTICAL ANI. =   3.00000     FOR LAYER   1

 WEL -- WELL PACKAGE, VERSION 7, 5/2/2005 INPUT READ FROM UNIT   20
 # WEL package for  MODFLOW-2005, generated by Flopy.
 No named parameters
 MAXIMUM OF     62 ACTIVE WELLS AT ONE TIME
 CELL-BY-CELL FLOWS WILL BE SAVED ON UNIT   40
 AUXILIARY WELL VARIABLE: IFACE           
 AUXILIARY WELL VARIABLE: QFACT           
 AUXILIARY WELL VARIABLE: CELLGRP         


     0 Well parameters

 RCH -- RECHARGE PACKAGE, VERSION 7, 5/2/2005 INPUT READ FROM UNIT   19
 # RCH package for  MODFLOW-2005, generated by Flopy.
 No named parameters
 OPTION 3 -- RECHARGE TO HIGHEST ACTIVE NODE IN EACH VERTICAL COLUMN
 CELL-BY-CELL FLOWS WILL BE SAVED ON UNIT   40


     0 Recharge parameters

 PCG -- CONJUGATE-GRADIENT SOLUTION PACKAGE, VERSION 7, 5/2/2005
 # PCG package for  MODFLOW-2005, generated by Flopy.
 MAXIMUM OF     50 CALLS OF SOLUTION ROUTINE
 MAXIMUM OF     30 INTERNAL ITERATIONS PER CALL TO SOLUTION ROUTINE
 MATRIX PRECONDITIONING TYPE :    1



                                    SOLUTION BY THE CONJUGATE-GRADIENT METHOD
                                   -------------------------------------------
                    MAXIMUM NUMBER OF CALLS TO PCG ROUTINE =       50
                        MAXIMUM ITERATIONS PER CALL TO PCG =       30
                               MATRIX PRECONDITIONING TYPE =        1
        RELAXATION FACTOR (ONLY USED WITH PRECOND. TYPE 1) =    0.10000E+01
 PARAMETER OF POLYNOMIAL PRECOND. = 2 (2) OR IS CALCULATED :        0
                         HEAD CHANGE CRITERION FOR CLOSURE =    0.10000E-04
                     RESIDUAL CHANGE CRITERION FOR CLOSURE =    0.10000E-04
            PCG HEAD AND RESIDUAL CHANGE PRINTOUT INTERVAL =      999
     PRINTING FROM SOLVER IS LIMITED(1) OR SUPPRESSED (>1) =        3
                            STEADY-STATE DAMPING PARAMETER =    0.10000E+01
                               TRANSIENT DAMPING PARAMETER =    0.10000E+01

 OBS2BAS7 -- HEAD OBSERVATIONS, VERSION 2.0, 2/28/2006
 INPUT READ FROM UNIT  39
 # HOB package for  MODFLOW-2005, generated by Flopy.

 NUMBER OF HEADS....................................:   17
   NUMBER OF MULTILAYER HEADS.......................:    0
   MAXIMUM NUMBER OF LAYERS FOR MULTILAYER HEADS....:    0
 HEAD OBSERVATIONS WILL BE SAVED ON UNIT............:    7
 SIMULATED EQUIVALENT HEAD AT DRY CELLS WILL BE:   -777.000    

 OBSERVED HEAD DATA -- TIME OFFSETS ARE MULTIPLIED BY:  1.00000    

                    REFER.
       OBSERVATION  STRESS    TIME
  OBS#    NAME      PERIOD   OFFSET    OBSERVATION
     1 hed1             1    0.000       6.546    
 Observation within a steady-state time step has been moved to the end of the time step.
     2 hed2             1    0.000       6.721    
 Observation within a steady-state time step has been moved to the end of the time step.
     3 hed3             1    0.000       5.312    
 Observation within a steady-state time step has been moved to the end of the time step.
     4 hed4             1    0.000       1.627    
 Observation within a steady-state time step has been moved to the end of the time step.
     5 hed5             1    0.000       1.552    
 Observation within a steady-state time step has been moved to the end of the time step.
     6 hed6             1    0.000       1.173    
 Observation within a steady-state time step has been moved to the end of the time step.
     7 hed7             1    0.000       4.385    
 Observation within a steady-state time step has been moved to the end of the time step.
     8 hed8             1    0.000       1.296    
 Observation within a steady-state time step has been moved to the end of the time step.
     9 hed9             1    0.000       3.070    
 Observation within a steady-state time step has been moved to the end of the time step.
    10 hed10            1    0.000       1.225    
 Observation within a steady-state time step has been moved to the end of the time step.
    11 hed11            1    0.000       6.368    
 Observation within a steady-state time step has been moved to the end of the time step.
    12 hed12            1    0.000       6.444    
 Observation within a steady-state time step has been moved to the end of the time step.
    13 hed13            1    0.000       6.669    
 Observation within a steady-state time step has been moved to the end of the time step.
    14 hed14            1    0.000       3.382    
 Observation within a steady-state time step has been moved to the end of the time step.
    15 hed15            1    0.000       1.118    
 Observation within a steady-state time step has been moved to the end of the time step.
    16 hed16            1    0.000       2.608    
 Observation within a steady-state time step has been moved to the end of the time step.
    17 hed17            1    0.000       1.161    
 Observation within a steady-state time step has been moved to the end of the time step.

                                                     HEAD CHANGE
                                                      REFERENCE
        OBSERVATION                   ROW     COL    OBSERVATION
  OBS#     NAME       LAY  ROW  COL  OFFSET  OFFSET   (IF > 0)
     1  hed1            1   60   40   0.392  -0.213        0
     2  hed2            1   56   30   0.401  -0.274        0
     3  hed3            1   71   27   0.007  -0.007        0
     4  hed4            1   26   73  -0.031  -0.435        0
     5  hed5            1   23   61  -0.452   0.363        0
     6  hed6            1   31   63  -0.195   0.271        0
     7  hed7            1   79   31   0.028  -0.174        0
     8  hed8            1   56   12  -0.188   0.123        0
     9  hed9            1   39   50  -0.056   0.099        0
    10  hed10           1   27   78   0.148   0.105        0
    11  hed11           1   68   38   0.197   0.466        0
    12  hed12           1   73   35   0.377  -0.427        0
    13  hed13           1   71   36   0.297   0.050        0
    14  hed14           1   81   36   0.175  -0.147        0
    15  hed15           1   27   87   0.030   0.153        0
    16  hed16           1   45   54   0.196  -0.084        0
    17  hed17           1   21   93   0.368  -0.431        0
1
                            STRESS PERIOD NO.    1, LENGTH =  1.0000000    
                            -----------------------------------------------

                              NUMBER OF TIME STEPS =     1

                               MULTIPLIER FOR DELT =     1.000

                            INITIAL TIME STEP SIZE =  1.0000000    

 WELL NO.  LAYER   ROW   COL   STRESS RATE         IFACE           QFACT           CELLGRP         
 --------------------------------------------------------------------------------------------------
      1      1     56     28     -0.3000E+05       0.000          1.0000          1.0000    
      2      1     55     29     -0.3000E+05       0.000          1.0000           2.000    
      3      1     66     36     -0.3000E+05       0.000          1.0000           3.000    
      4      1     66     40     -0.3000E+05       0.000          1.0000           4.000    
      5      1     65     41     -0.3000E+05       0.000          1.0000           5.000    
      6      1     65     41     -0.3000E+05       0.000          1.0000           6.000    
      7      1     65     41     -0.3000E+05       0.000          1.0000           7.000    
      8      1     65     41     -0.3000E+05       0.000          1.0000           8.000    
      9      1     64     41     -0.3000E+05       0.000          1.0000           9.000    
     10      1     63     41     -0.3000E+05       0.000          1.0000          10.000    
     11      1     62     41     -0.3000E+05       0.000          1.0000           11.00    
     12      1     61     39     -0.3000E+05       0.000          1.0000           12.00    
     13      1     61     39     -0.3000E+05       0.000          1.0000           13.00    
     14      1     79     36     -0.3000E+05       0.000          1.0000           14.00    
     15      1     79     36     -0.3000E+05       0.000          1.0000           15.00    
     16      1     79     36     -0.3000E+05       0.000          1.0000           16.00    
     17      1     78     38     -0.3000E+05       0.000          1.0000           17.00    
     18      1     70     28     -0.3000E+05       0.000          1.0000           18.00    
     19      1     71     29     -0.3000E+05       0.000          1.0000           19.00    
     20      1     72     29     -0.3000E+05       0.000          1.0000           20.00    
     21      1     74     28     -0.3000E+05       0.000          1.0000           21.00    
     22      1     74     27     -0.3000E+05       0.000          1.0000           22.00    
     23      1     76     30     -0.3000E+05       0.000          1.0000           23.00    
     24      1     76     30     -0.3000E+05       0.000          1.0000           24.00    
     25      1     77     30     -0.3000E+05       0.000          1.0000           25.00    
     26      1     78     30     -0.3000E+05       0.000          1.0000           26.00    
     27      1     61     39     -0.3000E+05       0.000          1.0000           27.00    
     28      1     33     49     -0.3000E+05       0.000          1.0000           28.00    
     29      1     35     50     -0.3000E+05       0.000          1.0000           29.00    
     30      1     36     50     -0.3000E+05       0.000          1.0000           30.00    
     31      1     37     49     -0.3000E+05       0.000          1.0000           31.00    
     32      1     37     53     -0.3000E+05       0.000          1.0000           32.00    
     33      1     30     64     -0.3000E+05       0.000          1.0000           33.00    
     34      1     29     64     -0.3000E+05       0.000          1.0000           34.00    
     35      1     29     78     -0.3000E+05       0.000          1.0000           35.00    
     36      1     19     94     -0.3000E+05       0.000          1.0000           36.00    
     37      1     20     93     -0.3000E+05       0.000          1.0000           37.00    
     38      1     27     88     -0.3000E+05       0.000          1.0000           38.00    
     39      1     44     43     -0.3000E+05       0.000          1.0000           39.00    
     40      1     45     43     -0.3000E+05       0.000          1.0000           40.00    
     41      1     66     40     -0.3000E+05       0.000          1.0000           41.00    
     42      1     30     64     -0.3000E+05       0.000          1.0000           42.00    
     43      1     37     53     -0.3000E+05       0.000          1.0000           43.00    
     44      1     76     36     -0.3000E+05       0.000          1.0000           44.00    
     45      1     21     61     -0.3000E+05       0.000          1.0000           45.00    
     46      1     71     38     -0.3000E+05       0.000          1.0000           46.00    
     47      1     29     67     -0.3000E+05       0.000          1.0000           47.00    
     48      1     29     67     -0.3000E+05       0.000          1.0000           48.00    
     49      1     72     37     -0.3000E+05       0.000          1.0000           49.00    
     50      1     56     11     -0.3000E+05       0.000          1.0000           50.00    
     51      1     56     11     -0.3000E+05       0.000          1.0000           51.00    
     52      1     28     88     -0.3000E+05       0.000          1.0000           52.00    
     53      1     72     35     -0.3000E+05       0.000          1.0000           53.00    
     54      1     21     62     -0.3000E+05       0.000          1.0000           54.00    
     55      1     72     34     -0.3000E+05       0.000          1.0000           55.00    
     56      1     19     94     -0.3000E+05       0.000          1.0000           56.00    
     57      1     26     94     -0.3000E+05       0.000          1.0000           57.00    
     58      1     26     94     -0.3000E+05       0.000          1.0000           58.00    
     59      1     24     72     -0.3000E+05       0.000          1.0000           59.00    
     60      1     25     72     -0.3000E+05       0.000          1.0000           60.00    
     61      1     44     55     -0.3000E+05       0.000          1.0000           61.00    
     62      1     39     48     -0.3000E+05       0.000          1.0000           62.00    

     62 WELLS



                           RECHARGE
 READING ON UNIT   19 WITH FORMAT: (FREE)              
 
 SOLVING FOR HEAD 

 OUTPUT CONTROL FOR STRESS PERIOD    1   TIME STEP    1
    PRINT HEAD FOR ALL LAYERS
    PRINT BUDGET
    SAVE HEAD FOR ALL LAYERS
    SAVE BUDGET
 UBDSV2 SAVING "   CONSTANT HEAD" ON UNIT  40 AT TIME STEP  1, STRESS PERIOD   1
 UBDSV1 SAVING "FLOW RIGHT FACE " ON UNIT  40 AT TIME STEP  1, STRESS PERIOD   1
 UBDSV1 SAVING "FLOW FRONT FACE " ON UNIT  40 AT TIME STEP  1, STRESS PERIOD   1
 UBDSV4 SAVING "           WELLS" ON UNIT  40 AT TIME STEP  1, STRESS PERIOD   1
 UBDSV3 SAVING "        RECHARGE" ON UNIT  40 AT TIME STEP  1, STRESS PERIOD   1
1
              HEAD IN LAYER   1 AT END OF TIME STEP   1 IN STRESS PERIOD    1
  ---------------------------------------------------------------------------

            1           2           3           4           5           6           7           8           9          10
           11          12          13          14          15          16          17          18          19          20
           21          22          23          24          25          26          27          28          29          30
           31          32          33          34          35          36          37          38          39          40
           41          42          43          44          45          46          47          48          49          50
           51          52          53          54          55          56          57          58          59          60
           61          62          63          64          65          66          67          68          69          70
           71          72          73          74          75          76          77          78          79          80
           81          82          83          84          85          86          87          88          89          90
           91          92          93          94          95          96          97          98          99         100
 ........................................................................................................................
   1   -999.0      -999.0      -999.0      -999.0      -999.0      -999.0      -999.0      -999.0      -999.0      -999.0    
       -999.0      -999.0      -999.0      -999.0      -999.0      -999.0      -999.0      -999.0      -999.0      -999.0    
       -999.0      -999.0      -999.0      -999.0      -999.0      -999.0      -999.0      -999.0      -999.0      -999.0    
       -999.0      -999.0      -999.0      -999.0      -999.0      -999.0      -999.0      -999.0      -999.0      -999.0    
       -999.0      -999.0      -999.0      -999.0      -999.0      -999.0      -999.0      -999.0      -999.0      -999.0    
       -999.0      -999.0      -999.0      -999.0      -999.0      -999.0      -999.0      -999.0      -999.0      -999.0    
       -999.0      -999.0      -999.0      -999.0      -999.0      -999.0      -999.0      -999.0      -999.0      -999.0    
       -999.0      -999.0      -999.0      -999.0      -999.0      -999.0      -999.0      -999.0      -999.0      -999.0    
       -999.0      -999.0      -999.0      -999.0      -999.0      -999.0      -999.0      -999.0      -999.0      -999.0    
       -999.0      -999.0      -999.0      -999.0      -999.0      -999.0      -999.0      -999.0      -999.0      -999.0    
   2   -999.0      -999.0      -999.0      -999.0      -999.0      -999.0      -999.0      -999.0      -999.0      -999.0    
       -999.0      -999.0      -999.0      -999.0      -999.0      -999.0      -999.0      -999.0      -999.0      -999.0    
       -999.0      -999.0      -999.0      -999.0      -999.0      -999.0      -999.0      -999.0      -999.0      -999.0    
       -999.0      -999.0      -999.0      -999.0      -999.0      -999.0      -999.0      -999.0      -999.0      -999.0    
       -999.0      -999.0      -999.0      -999.0      -999.0      -999.0      -999.0      -999.0      -999.0      -999.0    
       -999.0      -999.0      -999.0      -999.0      -999.0      -999.0      -999.0      -999.0      -999.0      -999.0    
       -999.0      -999.0      -999.0      -999.0      -999.0      -999.0      -999.0      -999.0      -999.0      -999.0    
       -999.0      -999.0      -999.0      -999.0      -999.0      -999.0      -999.0      -999.0      -999.0      -999.0    
       -999.0      -999.0      -999.0      -999.0      -999.0      -999.0      -999.0      -999.0      -999.0      -999.0    
       -999.0      -999.0      -999.0      -999.0      -999.0      -999.0      -999.0      -999.0      -999.0      -999.0    
   3   -999.0      -999.0      -999.0      -999.0      -999.0      -999.0      -999.0      -999.0      -999.0      -999.0    
       -999.0      -999.0      -999.0      -999.0      -999.0      -999.0      -999.0      -999.0      -999.0      -999.0    
       -999.0      -999.0      -999.0      -999.0      -999.0      -999.0      -999.0      -999.0      -999.0      -999.0    
       -999.0      -999.0      -999.0      -999.0      -999.0      -999.0      -999.0      -999.0      -999.0      -999.0    
       -999.0      -999.0      -999.0      -999.0      -999.0      -999.0      -999.0      -999.0      -999.0      -999.0    
       -999.0      -999.0      -999.0      -999.0      -999.0      -999.0      -999.0      -999.0      -999.0      -999.0    
       -999.0      -999.0      -999.0      -999.0      -999.0      -999.0      -999.0      -999.0      -999.0      -999.0    
       -999.0      -999.0      -999.0      -999.0      -999.0      -999.0      -999.0      -999.0      -999.0      -999.0    
       -999.0      -999.0      -999.0      -999.0      -999.0      -999.0      -999.0      -999.0      -999.0      -999.0    
       -999.0      -999.0      -999.0      -999.0      -999.0      -999.0      -999.0      -999.0      -999.0      -999.0    
   4   -999.0      -999.0      -999.0      -999.0      -999.0      -999.0      -999.0      -999.0      -999.0      -999.0    
       -999.0      -999.0      -999.0      -999.0      -999.0      -999.0      -999.0      -999.0      -999.0      -999.0    
       -999.0      -999.0      -999.0      -999.0      -999.0      -999.0      -999.0      -999.0      -999.0      -999.0    
       -999.0      -999.0      -999.0      -999.0      -999.0      -999.0      -999.0      -999.0      -999.0      -999.0    
       -999.0      -999.0      -999.0      -999.0      -999.0      -999.0      -999.0      -999.0      -999.0      -999.0    
       -999.0      -999.0      -999.0      -999.0      -999.0      -999.0      -999.0      -999.0      -999.0      -999.0    
       -999.0      -999.0      -999.0      -999.0      -999.0      -999.0      -999.0      -999.0      -999.0      -999.0    
       -999.0      -999.0      -999.0      -999.0      -999.0      -999.0      -999.0      -999.0      -999.0      -999.0    
       -999.0      -999.0      -999.0      -999.0      -999.0      -999.0      -999.0      -999.0      -999.0      -999.0    
       -999.0      -999.0      -999.0      -999.0      -999.0      -999.0      -999.0      -999.0      -999.0      -999.0    
   5   -999.0      -999.0      -999.0      -999.0      -999.0      -999.0      -999.0      -999.0      -999.0      -999.0    
       -999.0      -999.0      -999.0      -999.0      -999.0      -999.0      -999.0      -999.0      -999.0      -999.0    
       -999.0      -999.0      -999.0      -999.0      -999.0      -999.0      -999.0      -999.0      -999.0      -999.0    
       -999.0      -999.0      -999.0      -999.0      -999.0      -999.0      -999.0      -999.0      -999.0      -999.0    
       -999.0      -999.0      -999.0      -999.0      -999.0      -999.0      -999.0      -999.0      -999.0      -999.0    
       -999.0      -999.0      -999.0      -999.0      -999.0      -999.0      -999.0      -999.0      -999.0      -999.0    
       -999.0      -999.0      -999.0      -999.0      -999.0      -999.0      -999.0      -999.0      -999.0      -999.0    
       -999.0      -999.0      -999.0      -999.0      -999.0      -999.0      -999.0      -999.0      -999.0      -999.0    
       -999.0      -999.0      -999.0      -999.0      -999.0      -999.0      -999.0      -999.0      -999.0      -999.0    
       -999.0      -999.0      -999.0      -999.0      -999.0      -999.0      -999.0      -999.0      -999.0      -999.0    
   6   -999.0      -999.0      -999.0      -999.0      -999.0      -999.0      -999.0      -999.0      -999.0      -999.0    
       -999.0      -999.0      -999.0      -999.0      -999.0      -999.0      -999.0      -999.0      -999.0      -999.0    
       -999.0      -999.0      -999.0      -999.0      -999.0      -999.0      -999.0      -999.0      -999.0      -999.0    
       -999.0      -999.0      -999.0      -999.0      -999.0      -999.0      -999.0      -999.0      -999.0      -999.0    
       -999.0      -999.0      -999.0      -999.0      -999.0      -999.0      -999.0      -999.0      -999.0      -999.0    
       -999.0      -999.0      -999.0      -999.0      -999.0      -999.0      -999.0      -999.0      -999.0      -999.0    
       -999.0      -999.0      -999.0      -999.0      -999.0      -999.0      -999.0      -999.0      -999.0      -999.0    
       -999.0      -999.0      -999.0      -999.0      -999.0      -999.0      -999.0      -999.0      -999.0      -999.0    
       -999.0      -999.0      -999.0      -999.0      -999.0      -999.0      -999.0      -999.0      -999.0      -999.0    
       -999.0      -999.0      -999.0      -999.0      -999.0      -999.0      -999.0      -999.0      -999.0      -999.0    
   7   -999.0      -999.0      -999.0      -999.0      -999.0      -999.0      -999.0      -999.0      -999.0      -999.0    
       -999.0      -999.0      -999.0      -999.0      -999.0      -999.0      -999.0      -999.0      -999.0      -999.0    
       -999.0      -999.0      -999.0      -999.0      -999.0      -999.0      -999.0      -999.0      -999.0      -999.0    
       -999.0      -999.0      -999.0      -999.0      -999.0      -999.0      -999.0      -999.0      -999.0      -999.0    
       -999.0      -999.0      -999.0      -999.0      -999.0      -999.0      -999.0      -999.0      -999.0      -999.0    
       -999.0      -999.0      -999.0      -999.0      -999.0      -999.0      -999.0      -999.0      -999.0      -999.0    
       -999.0      -999.0      -999.0      -999.0      -999.0      -999.0      -999.0      -999.0      -999.0      -999.0    
       -999.0      -999.0      -999.0      -999.0      -999.0      -999.0      -999.0      -999.0      -999.0      -999.0    
       -999.0      -999.0      -999.0      -999.0      -999.0      -999.0      -999.0      -999.0      -999.0      -999.0    
       -999.0      -999.0      -999.0      -999.0      -999.0      -999.0      -999.0      -999.0      -999.0      -999.0    
   8   -999.0      -999.0      -999.0      -999.0      -999.0      -999.0      -999.0      -999.0      -999.0      -999.0    
       -999.0      -999.0      -999.0      -999.0      -999.0      -999.0      -999.0      -999.0      -999.0      -999.0    
       -999.0      -999.0      -999.0      -999.0      -999.0      -999.0      -999.0      -999.0      -999.0      -999.0    
       -999.0      -999.0      -999.0      -999.0      -999.0      -999.0      -999.0      -999.0      -999.0      -999.0    
       -999.0      -999.0      -999.0      -999.0      -999.0      -999.0      -999.0      -999.0      -999.0      -999.0    
       -999.0      -999.0      -999.0      -999.0      -999.0      -999.0      -999.0      -999.0      -999.0      -999.0    
       -999.0      -999.0      -999.0      -999.0      -999.0      -999.0      -999.0      -999.0      -999.0      -999.0    
       -999.0      -999.0      -999.0      -999.0      -999.0      -999.0      -999.0      -999.0      -999.0      -999.0    
       -999.0      -999.0      -999.0      -999.0      -999.0      -999.0      -999.0      -999.0      -999.0      -999.0    
       -999.0      -999.0      -999.0      -999.0      -999.0      -999.0      -999.0      -999.0      -999.0      -999.0    
   9   -999.0      -999.0      -999.0      -999.0      -999.0      -999.0      -999.0      -999.0      -999.0      -999.0    
       -999.0      -999.0      -999.0      -999.0      -999.0      -999.0      -999.0      -999.0      -999.0      -999.0    
       -999.0      -999.0      -999.0      -999.0      -999.0      -999.0      -999.0      -999.0      -999.0      -999.0    
       -999.0      -999.0      -999.0      -999.0      -999.0      -999.0      -999.0      -999.0      -999.0      -999.0    
       -999.0      -999.0      -999.0      -999.0      -999.0      -999.0      -999.0      -999.0      -999.0      -999.0    
       -999.0      -999.0      -999.0      -999.0      -999.0      -999.0      -999.0      -999.0      -999.0      -999.0    
       -999.0      -999.0      -999.0      -999.0      -999.0      -999.0      -999.0      -999.0      -999.0      -999.0    
       -999.0      -999.0      -999.0      -999.0      -999.0      -999.0      -999.0      -999.0      -999.0      -999.0    
       -999.0      -999.0      -999.0      -999.0      -999.0      -999.0      -999.0      -999.0      -999.0      -999.0    
       -999.0      -999.0      -999.0      -999.0      -999.0      -999.0      -999.0      -999.0      -999.0      -999.0    
  10   -999.0      -999.0      -999.0      -999.0      -999.0      -999.0      -999.0      -999.0      -999.0      -999.0    
       -999.0      -999.0      -999.0      -999.0      -999.0      -999.0      -999.0      -999.0      -999.0      -999.0    
       -999.0      -999.0      -999.0      -999.0      -999.0      -999.0      -999.0      -999.0      -999.0      -999.0    
       -999.0      -999.0      -999.0      -999.0      -999.0      -999.0      -999.0      -999.0      -999.0      -999.0    
       -999.0      -999.0      -999.0      -999.0      -999.0      -999.0      -999.0      -999.0      -999.0      -999.0    
       -999.0      -999.0      -999.0      -999.0      -999.0      -999.0      -999.0      -999.0      -999.0      -999.0    
       -999.0      -999.0      -999.0      -999.0      -999.0      -999.0      -999.0      -999.0      -999.0      -999.0    
       -999.0      -999.0      -999.0      -999.0      -999.0      -999.0      -999.0      -999.0      -999.0      -999.0    
       -999.0      -999.0      -999.0      -999.0      -999.0      -999.0      -999.0      -999.0      -999.0      -999.0    
       -999.0      -999.0      -999.0      -999.0      -999.0      -999.0      -999.0      -999.0      -999.0      -999.0    
  11   -999.0      -999.0      -999.0      -999.0      -999.0      -999.0      -999.0      -999.0      -999.0      -999.0    
       -999.0      -999.0      -999.0      -999.0      -999.0      -999.0      -999.0      -999.0      -999.0      -999.0    
       -999.0      -999.0      -999.0      -999.0      -999.0      -999.0      -999.0      -999.0      -999.0      -999.0    
       -999.0      -999.0      -999.0      -999.0      -999.0      -999.0      -999.0      -999.0      -999.0      -999.0    
       -999.0      -999.0      -999.0      -999.0      -999.0      -999.0      -999.0      -999.0      -999.0      -999.0    
       -999.0      -999.0      -999.0      -999.0      -999.0      -999.0      -999.0      -999.0      -999.0      1.0000    
       1.0000      -999.0      -999.0      -999.0      -999.0      -999.0      -999.0      -999.0      -999.0      -999.0    
       -999.0      -999.0      -999.0      -999.0      -999.0      -999.0      -999.0      -999.0      -999.0      -999.0    
       -999.0      -999.0      -999.0      -999.0      -999.0      -999.0      -999.0      -999.0      -999.0      -999.0    
       -999.0      -999.0      -999.0      -999.0      -999.0      -999.0      -999.0      -999.0      -999.0      -999.0    
  12   -999.0      -999.0      -999.0      -999.0      -999.0      -999.0      -999.0      -999.0      -999.0      -999.0    
       -999.0      -999.0      -999.0      -999.0      -999.0      -999.0      -999.0      -999.0      -999.0      -999.0    
       -999.0      -999.0      -999.0      -999.0      -999.0      -999.0      -999.0      -999.0      -999.0      -999.0    
       -999.0      -999.0      -999.0      -999.0      -999.0      -999.0      -999.0      -999.0      -999.0      -999.0    
       -999.0      -999.0      -999.0      -999.0      -999.0      -999.0      -999.0      -999.0      -999.0      -999.0    
       -999.0      -999.0      -999.0      -999.0      -999.0      -999.0      -999.0      -999.0      1.0000      1.0000    
       1.0000      -999.0      -999.0      -999.0      -999.0      -999.0      -999.0      -999.0      -999.0      -999.0    
       -999.0      -999.0      -999.0      -999.0      -999.0      -999.0      -999.0      -999.0      -999.0      -999.0    
       -999.0      -999.0      -999.0      -999.0      -999.0      -999.0      -999.0      -999.0      -999.0      -999.0    
       -999.0      -999.0      -999.0      -999.0      -999.0      -999.0      -999.0      -999.0      -999.0      -999.0    
  13   -999.0      -999.0      -999.0      -999.0      -999.0      -999.0      -999.0      -999.0      -999.0      -999.0    
       -999.0      -999.0      -999.0      -999.0      -999.0      -999.0      -999.0      -999.0      -999.0      -999.0    
       -999.0      -999.0      -999.0      -999.0      -999.0      -999.0      -999.0      -999.0      -999.0      -999.0    
       -999.0      -999.0      -999.0      -999.0      -999.0      -999.0      -999.0      -999.0      -999.0      -999.0    
       -999.0      -999.0      -999.0      -999.0      -999.0      -999.0      -999.0      -999.0      -999.0      -999.0    
       -999.0      -999.0      -999.0      -999.0      -999.0      -999.0      -999.0      -999.0      1.0000       1.003    
       1.0000      -999.0      -999.0      -999.0      -999.0      -999.0      -999.0      -999.0      -999.0      -999.0    
       -999.0      -999.0      -999.0      -999.0      -999.0      -999.0      -999.0      -999.0      -999.0      -999.0    
       -999.0      -999.0      -999.0      -999.0      -999.0      -999.0      -999.0      -999.0      -999.0      -999.0    
       -999.0      -999.0      -999.0      -999.0      -999.0      -999.0      -999.0      -999.0      -999.0      -999.0    
  14   -999.0      -999.0      -999.0      -999.0      -999.0      -999.0      -999.0      -999.0      -999.0      -999.0    
       -999.0      -999.0      -999.0      -999.0      -999.0      -999.0      -999.0      -999.0      -999.0      -999.0    
       -999.0      -999.0      -999.0      -999.0      -999.0      -999.0      -999.0      -999.0      -999.0      -999.0    
       -999.0      -999.0      -999.0      -999.0      -999.0      -999.0      -999.0      -999.0      -999.0      -999.0    
       -999.0      -999.0      -999.0      -999.0      -999.0      -999.0      -999.0      -999.0      -999.0      -999.0    
       -999.0      -999.0      -999.0      -999.0      -999.0      -999.0      1.0000      1.0000      1.0000      1.0000    
       1.0000      -999.0      -999.0      -999.0      -999.0      -999.0      -999.0      -999.0      -999.0      -999.0    
       -999.0      -999.0      -999.0      -999.0      -999.0      -999.0      -999.0      -999.0      -999.0      -999.0    
       -999.0      -999.0      -999.0      -999.0      -999.0      -999.0      -999.0      -999.0      -999.0      -999.0    
       -999.0      -999.0      -999.0      -999.0      -999.0      -999.0      -999.0      -999.0      -999.0      -999.0    
  15   -999.0      -999.0      -999.0      -999.0      -999.0      -999.0      -999.0      -999.0      -999.0      -999.0    
       -999.0      -999.0      -999.0      -999.0      -999.0      -999.0      -999.0      -999.0      -999.0      -999.0    
       -999.0      -999.0      -999.0      -999.0      -999.0      -999.0      -999.0      -999.0      -999.0      -999.0    
       -999.0      -999.0      -999.0      -999.0      -999.0      -999.0      -999.0      -999.0      -999.0      -999.0    
       -999.0      -999.0      -999.0      -999.0      -999.0      -999.0      -999.0      -999.0      -999.0      -999.0    
       -999.0      -999.0      -999.0      -999.0      -999.0      -999.0      1.0000      1.0000       1.012      1.0000    
       -999.0      -999.0      -999.0      1.0000      -999.0      -999.0      -999.0      -999.0      -999.0      -999.0    
       -999.0      -999.0      -999.0      -999.0      -999.0      -999.0      -999.0      -999.0      -999.0      -999.0    
       -999.0      -999.0      -999.0      -999.0      -999.0      -999.0      -999.0      -999.0      -999.0      -999.0    
       -999.0      -999.0      -999.0      -999.0      1.0000      1.0000      -999.0      -999.0      -999.0      -999.0    
  16   -999.0      -999.0      -999.0      -999.0      -999.0      -999.0      -999.0      -999.0      -999.0      -999.0    
       -999.0      -999.0      -999.0      -999.0      -999.0      -999.0      -999.0      -999.0      -999.0      -999.0    
       -999.0      -999.0      -999.0      -999.0      -999.0      -999.0      -999.0      -999.0      -999.0      -999.0    
       -999.0      -999.0      -999.0      -999.0      -999.0      -999.0      -999.0      -999.0      -999.0      -999.0    
       -999.0      -999.0      -999.0      -999.0      -999.0      -999.0      -999.0      -999.0      -999.0      -999.0    
       -999.0      -999.0      -999.0      -999.0      1.0000      1.0000      1.0000       1.023      1.0000      1.0000    
       -999.0      1.0000      1.0000      1.0000      -999.0      -999.0      -999.0      -999.0      -999.0      -999.0    
       1.0000      1.0000      1.0000      -999.0      -999.0      -999.0      -999.0      -999.0      -999.0      -999.0    
       -999.0      -999.0      -999.0      -999.0      -999.0      -999.0      -999.0      -999.0      -999.0      -999.0    
       1.0000      -999.0      -999.0      1.0000      1.0000      1.0000      -999.0      -999.0      -999.0      -999.0    
  17   -999.0      -999.0      -999.0      -999.0      -999.0      -999.0      -999.0      -999.0      -999.0      -999.0    
       -999.0      -999.0      -999.0      -999.0      -999.0      -999.0      -999.0      -999.0      -999.0      -999.0    
       -999.0      -999.0      -999.0      -999.0      -999.0      -999.0      -999.0      -999.0      -999.0      -999.0    
       -999.0      -999.0      -999.0      -999.0      -999.0      -999.0      -999.0      -999.0      -999.0      -999.0    
       -999.0      -999.0      -999.0      -999.0      -999.0      -999.0      -999.0      -999.0      -999.0      -999.0    
       -999.0      -999.0      -999.0      -999.0      1.0000      1.0000      1.0000       1.026      1.0000      -999.0    
       1.0000      1.0000      1.0000      1.0000      -999.0      1.0000      1.0000      -999.0      1.0000      -999.0    
       1.0000      1.0000      1.0000      1.0000      1.0000      -999.0      -999.0      -999.0      -999.0      -999.0    
       -999.0      -999.0      -999.0      -999.0      -999.0      -999.0      -999.0      -999.0      -999.0      1.0000    
       1.0000      1.0000      1.0000      1.0000      1.0000      -999.0      -999.0      -999.0      -999.0      -999.0    
  18   -999.0      -999.0      -999.0      -999.0      -999.0      -999.0      -999.0      -999.0      -999.0      -999.0    
       -999.0      -999.0      -999.0      -999.0      -999.0      -999.0      -999.0      -999.0      -999.0      -999.0    
       -999.0      -999.0      -999.0      -999.0      -999.0      -999.0      -999.0      -999.0      -999.0      -999.0    
       -999.0      -999.0      -999.0      -999.0      -999.0      -999.0      -999.0      -999.0      -999.0      -999.0    
       -999.0      -999.0      -999.0      -999.0      -999.0      -999.0      -999.0      -999.0      -999.0      -999.0    
       -999.0      -999.0      -999.0      -999.0      1.0000       1.048       1.040       1.009      1.0000      1.0000    
       1.0000      0.2184      0.4543      1.0000      1.0000      1.0000      1.0000      -999.0      1.0000      1.0000    
       1.0000      1.0000      1.0000      1.0000      1.0000      -999.0      -999.0      -999.0      -999.0      -999.0    
       -999.0      -999.0      -999.0      -999.0      -999.0      -999.0      -999.0      -999.0      -999.0      1.0000    
       0.4959     -0.1570      -1.317      -2.420      1.0000      -999.0      -999.0      -999.0      -999.0      -999.0    
  19   -999.0      -999.0      -999.0      -999.0      -999.0      -999.0      -999.0      -999.0      -999.0      -999.0    
       -999.0      -999.0      -999.0      -999.0      -999.0      -999.0      -999.0      -999.0      -999.0      -999.0    
       -999.0      -999.0      -999.0      -999.0      -999.0      -999.0      -999.0      -999.0      -999.0      -999.0    
       -999.0      -999.0      -999.0      -999.0      -999.0      -999.0      -999.0      -999.0      -999.0      -999.0    
       -999.0      -999.0      -999.0      -999.0      -999.0      -999.0      -999.0      -999.0      -999.0      -999.0    
       -999.0      -999.0      1.0000      1.0000      1.0000       1.077       1.052      0.9536      0.8257      1.0000    
       1.0000     -0.8734     -0.2077      1.0000      1.0000      1.0000      1.0000      -999.0      1.0000      1.0000    
       1.0000      0.7735      1.0000      1.0000      1.0000      -999.0      -999.0      -999.0      1.0000      -999.0    
       -999.0      -999.0      -999.0      -999.0      -999.0      -999.0      -999.0      1.0000      1.0000      1.0000    
       1.8834E-02  -1.191      -3.649      -7.117      1.0000      -999.0      -999.0      -999.0      -999.0      -999.0    
  20   -999.0      -999.0      -999.0      -999.0      -999.0      -999.0      -999.0      -999.0      -999.0      -999.0    
       -999.0      -999.0      -999.0      -999.0      -999.0      -999.0      -999.0      -999.0      -999.0      -999.0    
       -999.0      -999.0      -999.0      -999.0      -999.0      -999.0      -999.0      -999.0      -999.0      -999.0    
       -999.0      -999.0      -999.0      -999.0      -999.0      -999.0      -999.0      -999.0      -999.0      -999.0    
       -999.0      -999.0      -999.0      -999.0      -999.0      -999.0      -999.0      -999.0      -999.0      -999.0    
       1.0000      1.0000      1.0000      1.0000      1.0000       1.100       1.051      0.8724      0.5377     -5.3765E-02
       -1.705      -2.693      -1.050      0.2181      1.0000      1.0000      -999.0      -999.0      1.0000      1.0000    
       1.0000      0.4013      0.9446      1.0000      1.0000      -999.0      -999.0      -999.0      1.0000      -999.0    
       -999.0      1.0000      -999.0      -999.0      -999.0      -999.0      -999.0      1.0000      0.7994      0.4995    
      -0.4096      -1.902      -5.732      -4.446      1.0000      -999.0      -999.0      -999.0      -999.0      -999.0    
  21   -999.0      -999.0      -999.0      -999.0      -999.0      -999.0      -999.0      -999.0      -999.0      -999.0    
       -999.0      -999.0      -999.0      -999.0      -999.0      -999.0      -999.0      -999.0      -999.0      -999.0    
       -999.0      -999.0      -999.0      -999.0      -999.0      -999.0      -999.0      -999.0      -999.0      -999.0    
       -999.0      -999.0      -999.0      -999.0      -999.0      -999.0      -999.0      -999.0      -999.0      -999.0    
       -999.0      -999.0      -999.0      -999.0      -999.0      -999.0      -999.0      -999.0      -999.0      -999.0    
       1.0000      1.0000       1.079      1.0000      1.0000       1.130       1.052      0.8002      0.2880     -0.8525    
       -4.636      -5.268      -1.824     -0.4564      0.4109      1.0000      -999.0      1.0000      1.0000      0.4456    
       4.4897E-02 -0.3045      1.0000      1.0000      -999.0      -999.0      1.0000      1.0000      1.0000      1.0000    
       1.0000      1.0000      1.0000      1.0000      -999.0      -999.0      -999.0      1.0000      0.6141      0.1515    
      -0.6931      -1.992      -3.962      -2.927      1.0000      -999.0      -999.0      -999.0      -999.0      -999.0    
  22   -999.0      -999.0      -999.0      -999.0      -999.0      -999.0      -999.0      -999.0      -999.0      -999.0    
       -999.0      -999.0      -999.0      -999.0      -999.0      -999.0      -999.0      -999.0      -999.0      -999.0    
       -999.0      -999.0      -999.0      -999.0      -999.0      -999.0      -999.0      -999.0      -999.0      -999.0    
       -999.0      -999.0      -999.0      -999.0      -999.0      -999.0      -999.0      -999.0      -999.0      -999.0    
       -999.0      -999.0      -999.0      -999.0      -999.0      -999.0      -999.0      -999.0      -999.0      1.0000    
       1.0000       1.088       1.168       1.155       1.156       1.184       1.066      0.7654      0.1777     -0.9672    
       -3.210      -3.732      -2.067      -1.019     -0.1268      1.0000      1.0000      1.0000      1.0000     -0.1708    
      -0.9479      -1.485      1.0000      1.0000      -999.0      1.0000      1.0000      0.9869       1.000      1.0000    
       1.0000      1.0000      1.0000      1.0000      1.0000      -999.0      -999.0      1.0000      0.4367     -0.1057    
      -0.8662      -1.915      -3.028      -2.212      1.0000      1.0000      -999.0      -999.0      -999.0      -999.0    
  23   -999.0      -999.0      -999.0      -999.0      -999.0      -999.0      -999.0      -999.0      -999.0      -999.0    
       -999.0      -999.0      -999.0      -999.0      -999.0      -999.0      -999.0      -999.0      -999.0      -999.0    
       -999.0      -999.0      -999.0      -999.0      -999.0      -999.0      -999.0      -999.0      -999.0      -999.0    
       -999.0      -999.0      -999.0      -999.0      -999.0      -999.0      -999.0      -999.0      -999.0      -999.0    
       -999.0      -999.0      -999.0      -999.0      -999.0      -999.0      -999.0      -999.0      -999.0      1.0000    
       1.0000       1.148       1.248       1.273       1.272       1.245       1.097      0.7753      0.1874     -0.8159    
       -2.288      -2.827      -2.175      -1.565     -0.7527      1.0000      1.0000      0.1721     -5.5200E-02 -0.9177    
       -2.030      -3.516     -0.6011      1.0000      1.0000      1.0000      1.0000      0.9452      0.9832       1.014    
       1.0000      1.0000       1.030       1.027      1.0000      1.0000      -999.0      1.0000      0.2406     -0.3166    
      -0.9742      -1.833      -2.634      -2.165      0.4238      1.0000      -999.0      -999.0      -999.0      -999.0    
  24   -999.0      -999.0      -999.0      -999.0      -999.0      -999.0      -999.0      -999.0      -999.0      -999.0    
       -999.0      -999.0      -999.0      -999.0      -999.0      -999.0      -999.0      -999.0      -999.0      -999.0    
       -999.0      -999.0      -999.0      -999.0      -999.0      -999.0      -999.0      -999.0      -999.0      -999.0    
       -999.0      -999.0      -999.0      -999.0      -999.0      -999.0      -999.0      -999.0      -999.0      -999.0    
       -999.0      -999.0      -999.0      -999.0      -999.0      -999.0      -999.0      -999.0      -999.0      1.0000    
       1.0000       1.190       1.315       1.364       1.361       1.304       1.141      0.8242      0.2784     -0.5693    
       -1.652      -2.278      -2.304      -2.189      -1.660     -0.7135     -0.6124     -0.8420     -0.9628      -1.620    
       -3.036      -6.783      -1.873      0.1298      0.6602      0.8299      0.8678      0.8569      0.9467       1.018    
        1.031      1.0000       1.053       1.044       1.012      1.0000      -999.0      1.0000     -2.3674E-02 -0.5133    
       -1.041      -1.780      -2.599      -2.710      0.3822      1.0000      -999.0      -999.0      -999.0      -999.0    
  25   -999.0      -999.0      -999.0      -999.0      -999.0      -999.0      -999.0      -999.0      -999.0      -999.0    
       -999.0      -999.0      -999.0      -999.0      -999.0      -999.0      -999.0      -999.0      -999.0      -999.0    
       -999.0      -999.0      -999.0      -999.0      -999.0      -999.0      -999.0      -999.0      -999.0      -999.0    
       -999.0      -999.0      -999.0      -999.0      -999.0      -999.0      -999.0      -999.0      -999.0      -999.0    
       -999.0      -999.0      -999.0      -999.0      -999.0      -999.0      1.0000      1.0000      1.0000      1.0000    
        1.048       1.219       1.370       1.435       1.432       1.360       1.193      0.9020      0.4201     -0.2906    
       -1.173      -1.924      -2.502      -2.951      -2.707      -2.225      -2.145      -1.911      -1.749      -2.139    
       -3.433      -7.169      -2.382     -0.3636      0.3989      0.6742      0.7275      0.7197      0.8938       1.017    
        1.059       1.061       1.078       1.051       1.002      1.0000      1.0000      1.0000     -0.4446     -0.7127    
       -1.062      -1.718      -2.771      -4.143      1.0000      1.0000      -999.0      -999.0      -999.0      -999.0    
  26   -999.0      -999.0      -999.0      -999.0      -999.0      -999.0      -999.0      -999.0      -999.0      -999.0    
       -999.0      -999.0      -999.0      -999.0      -999.0      -999.0      -999.0      -999.0      -999.0      -999.0    
       -999.0      -999.0      -999.0      -999.0      -999.0      -999.0      -999.0      -999.0      -999.0      -999.0    
       -999.0      -999.0      -999.0      -999.0      -999.0      -999.0      -999.0      -999.0      -999.0      -999.0    
       -999.0      -999.0      -999.0      -999.0      -999.0      -999.0      1.0000      1.0000      1.0000      1.0000    
        1.021       1.212       1.386       1.463       1.461       1.378       1.218      0.9696      0.5705     -1.8877E-02
      -0.7850      -1.672      -2.789      -3.934      -3.853      -3.663      -3.756      -2.995      -2.418      -2.446    
       -3.204      -4.642      -2.179     -0.5496      0.2373      0.5462      0.5711      0.5003      0.8218       1.006    
        1.073       1.092       1.091       1.040      0.9542      1.0000      1.0000      -1.665      -1.206     -0.9116    
       -1.021      -1.568      -2.877      -7.389      1.0000      -999.0      -999.0      -999.0      -999.0      -999.0    
  27   -999.0      -999.0      -999.0      -999.0      -999.0      -999.0      -999.0      -999.0      -999.0      -999.0    
       -999.0      -999.0      -999.0      -999.0      -999.0      -999.0      -999.0      -999.0      -999.0      -999.0    
       -999.0      -999.0      -999.0      -999.0      -999.0      -999.0      -999.0      -999.0      -999.0      -999.0    
       -999.0      -999.0      -999.0      -999.0      -999.0      -999.0      -999.0      -999.0      -999.0      -999.0    
       -999.0      -999.0      -999.0      -999.0      -999.0      -999.0      1.0000      1.0000      0.6153      0.6778    
       0.9058       1.168       1.366       1.451       1.448       1.357       1.205       1.016      0.7190      0.2471    
      -0.4177      -1.411      -3.123      -5.287      -5.064      -5.059      -5.637      -4.062      -2.956      -2.588    
       -2.824      -3.220      -1.784     -0.5407      0.1729      0.4626      0.4079      0.1411      0.7544      0.9938    
        1.076       1.104       1.092       1.013      0.8458      0.5260     -0.5596      -5.204      -1.945      -1.022    
      -0.8826      -1.233      -2.137      -3.643      1.0000      -999.0      -999.0      -999.0      -999.0      -999.0    
  28   -999.0      -999.0      -999.0      -999.0      -999.0      -999.0      -999.0      -999.0      -999.0      -999.0    
       -999.0      -999.0      -999.0      -999.0      -999.0      -999.0      -999.0      -999.0      -999.0      -999.0    
       -999.0      -999.0      -999.0      -999.0      -999.0      -999.0      -999.0      -999.0      -999.0      -999.0    
       -999.0      -999.0      -999.0      -999.0      -999.0      -999.0      -999.0      -999.0      -999.0      -999.0    
       -999.0      -999.0      -999.0      -999.0      -999.0      1.0000      1.0000      0.4091      6.6370E-02  0.2682    
       0.7391       1.098       1.315       1.401       1.399       1.290       1.139       1.031      0.8617      0.5120    
      -1.5053E-02  -1.009      -3.390      -7.327      -6.250      -6.332      -8.145      -5.037      -3.326      -2.599    
       -2.434      -2.335      -1.370     -0.4217      0.1909      0.4401      0.2697     -0.4912      0.7561      0.9916    
        1.068       1.103       1.085      0.9858      0.7540      0.2385      -1.179      -5.672      -2.073     -0.9400    
      -0.6312     -0.7677      -1.256      -1.614      1.0000      -999.0      -999.0      -999.0      -999.0      -999.0    
  29   -999.0      -999.0      -999.0      -999.0      -999.0      -999.0      -999.0      -999.0      -999.0      -999.0    
       -999.0      -999.0      -999.0      -999.0      -999.0      -999.0      -999.0      -999.0      -999.0      -999.0    
       -999.0      -999.0      -999.0      -999.0      -999.0      -999.0      -999.0      -999.0      -999.0      -999.0    
       -999.0      -999.0      -999.0      -999.0      -999.0      -999.0      -999.0      -999.0      -999.0      -999.0    
       -999.0      -999.0      -999.0      -999.0      -999.0      1.0000      0.4266     -0.2905     -0.6736     -0.2571    
       0.5606       1.026       1.238       1.314       1.316       1.172      1.0000      1.0000      1.0000      0.7715    
       0.4605     -0.2838      -3.293      -10.78      -7.155      -7.168      -12.05      -5.667      -3.462      -2.490    
       -2.060      -1.719     -0.9869     -0.2450      0.2750      0.4991      0.2593      -1.705      1.0000      1.0000    
        1.046       1.091       1.077      0.9695      0.7144      0.1747     -0.9880      -3.109      -1.555     -0.6556    
      -0.2794     -0.2281     -0.4321     -0.4176      1.0000      -999.0      -999.0      -999.0      -999.0      -999.0    
  30   -999.0      -999.0      -999.0      -999.0      -999.0      -999.0      -999.0      -999.0      -999.0      -999.0    
       -999.0      -999.0      -999.0      -999.0      -999.0      -999.0      -999.0      -999.0      -999.0      -999.0    
       -999.0      -999.0      -999.0      -999.0      -999.0      -999.0      -999.0      -999.0      -999.0      -999.0    
       -999.0      -999.0      -999.0      -999.0      -999.0      -999.0      -999.0      -999.0      -999.0      -999.0    
       -999.0      -999.0      -999.0      -999.0      -999.0      1.0000     -0.1249      -1.124      -1.675     -0.9344    
       0.4357      0.9809       1.136       1.185       1.211      1.0000      1.0000      1.0000      1.0000      1.0000    
       1.0000      1.0000      -2.045      -12.01      -7.105      -6.718      -8.438      -5.205      -3.296      -2.267    
       -1.696      -1.244     -0.6404     -4.1616E-02  0.4067      0.6516      0.6846      1.0000      1.0000      1.0000    
       1.0000       1.070       1.069      0.9684      0.7273      0.2587     -0.5590      -1.578     -0.8808     -0.2506    
       0.1398      0.3599      0.3105      0.3769      1.0000      -999.0      -999.0      -999.0      -999.0      -999.0    
  31   -999.0      -999.0      -999.0      -999.0      -999.0      -999.0      -999.0      -999.0      -999.0      -999.0    
       -999.0      -999.0      -999.0      -999.0      -999.0      -999.0      -999.0      -999.0      -999.0      -999.0    
       -999.0      -999.0      -999.0      -999.0      -999.0      -999.0      -999.0      -999.0      -999.0      -999.0    
       -999.0      -999.0      -999.0      -999.0      -999.0      -999.0      -999.0      -999.0      -999.0      -999.0    
       -999.0      -999.0      -999.0      -999.0      1.0000      1.0000     -0.7415      -2.124      -3.072      -1.827    
       0.4928      1.0000      1.0000      1.0000       1.109      1.0000      -999.0      -999.0      -999.0      -999.0    
       1.0000      1.0000      1.0000      -6.729      -5.863      -5.728      -6.228      -4.417      -2.924      -1.955    
       -1.332     -0.8451     -0.3263      0.1690      0.5611      0.8290      1.0000      1.0000      -999.0      1.0000    
       1.0000       1.044       1.062      0.9808      0.7771      0.4163     -9.7267E-02 -0.5382     -0.2110      0.1979    
       0.5844      1.0000      1.0000      1.0000      1.0000      -999.0      -999.0      -999.0      -999.0      -999.0    
  32   -999.0      -999.0      -999.0      -999.0      -999.0      -999.0      -999.0      -999.0      -999.0      -999.0    
       -999.0      -999.0      -999.0      -999.0      -999.0      -999.0      -999.0      -999.0      -999.0      -999.0    
       -999.0      -999.0      -999.0      -999.0      -999.0      -999.0      -999.0      -999.0      -999.0      -999.0    
       -999.0      -999.0      -999.0      -999.0      -999.0      -999.0      -999.0      -999.0      -999.0      -999.0    
       -999.0      -999.0      -999.0      1.0000      1.0000      0.1921      -1.488      -3.287      -5.115      -3.058    
       1.0000      1.0000      -999.0      1.0000      1.0000      1.0000      -999.0      -999.0      -999.0      -999.0    
       -999.0      -999.0      1.0000      -3.862      -4.459      -4.600      -4.685      -3.578      -2.442      -1.581    
      -0.9667     -0.4884     -3.9506E-02  0.3740      0.7163      1.0000      1.0000      -999.0      -999.0      -999.0    
       1.0000      1.0000       1.058       1.002      0.8448      0.5938      0.3228      0.2692      0.4145      0.6306    
       1.0000      1.0000      1.0000      1.0000      -999.0      -999.0      -999.0      -999.0      -999.0      -999.0    
  33   -999.0      -999.0      -999.0      -999.0      -999.0      -999.0      -999.0      -999.0      -999.0      -999.0    
       -999.0      -999.0      -999.0      -999.0      -999.0      -999.0      -999.0      -999.0      -999.0      -999.0    
       -999.0      -999.0      -999.0      -999.0      -999.0      -999.0      -999.0      -999.0      -999.0      -999.0    
       -999.0      -999.0      -999.0      -999.0      -999.0      -999.0      -999.0      -999.0      -999.0      -999.0    
       -999.0      -999.0      -999.0      1.0000      1.0000     -0.4099      -2.234      -4.488      -8.272      -4.884    
       1.0000      1.0000      1.0000      1.0000      -999.0      -999.0      -999.0      -999.0      -999.0      -999.0    
       -999.0      -999.0      1.0000      -2.203      -3.213      -3.522      -3.504      -2.781      -1.917      -1.175    
      -0.5977     -0.1575      0.2231      0.5649      0.8547      1.0000      -999.0      -999.0      -999.0      -999.0    
       -999.0      1.0000       1.060       1.025      0.9133      0.7554      0.6622      1.0000      1.0000      1.0000    
       1.0000      -999.0      -999.0      -999.0      -999.0      -999.0      -999.0      -999.0      -999.0      -999.0    
  34   -999.0      -999.0      -999.0      -999.0      -999.0      -999.0      -999.0      -999.0      -999.0      -999.0    
       -999.0      -999.0      -999.0      -999.0      -999.0      -999.0      -999.0      -999.0      -999.0      -999.0    
       -999.0      -999.0      -999.0      -999.0      -999.0      -999.0      -999.0      -999.0      -999.0      -999.0    
       -999.0      -999.0      -999.0      -999.0      -999.0      -999.0      -999.0      -999.0      -999.0      -999.0    
       -999.0      -999.0      -999.0      1.0000      0.4898     -0.9308      -2.895      -5.322      -8.146      -7.452    
       -2.396     -0.8454      1.0000      1.0000      -999.0      -999.0      1.0000      -999.0      -999.0      -999.0    
       -999.0      1.0000      1.0000      -1.179      -2.193      -2.567      -2.548      -2.056      -1.393     -0.7587    
      -0.2251      0.1559      0.4627      0.7363      1.0000      1.0000      -999.0      -999.0      -999.0      -999.0    
       -999.0      1.0000       1.063       1.044      0.9693      0.8780      0.8626      1.0000      -999.0      1.0000    
       1.0000      -999.0      -999.0      -999.0      -999.0      -999.0      -999.0      -999.0      -999.0      -999.0    
  35   -999.0      -999.0      -999.0      -999.0      -999.0      -999.0      -999.0      -999.0      -999.0      -999.0    
       -999.0      -999.0      -999.0      -999.0      -999.0      -999.0      -999.0      -999.0      -999.0      -999.0    
       -999.0      -999.0      -999.0      -999.0      -999.0      -999.0      -999.0      -999.0      -999.0      -999.0    
       -999.0      -999.0      -999.0      -999.0      -999.0      -999.0      -999.0      -999.0      -999.0      -999.0    
       -999.0      -999.0      -999.0      1.0000      0.1968      -1.335      -3.464      -6.094      -9.024      -11.27    
       -4.900      -2.812      -1.768      1.0000      1.0000      1.0000      1.0000      1.0000      -999.0      -999.0    
       -999.0      -999.0      1.0000     -0.5067      -1.381      -1.752      -1.755      -1.409     -0.8942     -0.3485    
       0.1552      0.4558      0.6778      0.8768      1.0000      -999.0      -999.0      -999.0      -999.0      -999.0    
       -999.0      1.0000       1.062       1.054       1.005      0.9585      1.0000      1.0000      -999.0      -999.0    
       -999.0      -999.0      -999.0      -999.0      -999.0      -999.0      -999.0      -999.0      -999.0      -999.0    
  36   -999.0      -999.0      -999.0      -999.0      -999.0      -999.0      -999.0      -999.0      -999.0      -999.0    
       -999.0      -999.0      -999.0      -999.0      -999.0      -999.0      -999.0      -999.0      -999.0      -999.0    
       -999.0      -999.0      -999.0      -999.0      -999.0      -999.0      -999.0      -999.0      -999.0      -999.0    
       -999.0      -999.0      -999.0      -999.0      -999.0      -999.0      -999.0      -999.0      -999.0      -999.0    
       -999.0      -999.0      -999.0      1.0000      6.5257E-02  -1.617      -3.936      -6.844      -10.15      -12.21    
       -6.308      -4.554      -5.076      -1.186      0.1183      0.6873      1.0000      -999.0      -999.0      -999.0    
       -999.0      -999.0      1.0000     -4.5823E-02 -0.7461      -1.075      -1.097     -0.8481     -0.4418      3.4270E-02
       0.5519      0.7384      0.8605      1.0000      1.0000      -999.0      -999.0      -999.0      -999.0      -999.0    
       -999.0      1.0000       1.057       1.052       1.016      0.9938      1.0000      -999.0      -999.0      -999.0    
       -999.0      -999.0      -999.0      -999.0      -999.0      -999.0      -999.0      -999.0      -999.0      -999.0    
  37   -999.0      -999.0      -999.0      -999.0      -999.0      -999.0      -999.0      -999.0      -999.0      -999.0    
       -999.0      -999.0      -999.0      -999.0      -999.0      -999.0      -999.0      -999.0      -999.0      -999.0    
       -999.0      -999.0      -999.0      -999.0      -999.0      -999.0      -999.0      -999.0      -999.0      -999.0    
       -999.0      -999.0      -999.0      -999.0      -999.0      -999.0      -999.0      -999.0      -999.0      -999.0    
       -999.0      -999.0      -999.0      1.0000      0.1028      -1.763      -4.288      -7.545      -11.67      -10.04    
       -6.653      -5.734      -9.669      -2.730     -0.5848      0.3956      1.0000      -999.0      -999.0      -999.0    
       -999.0      -999.0      1.0000      0.2826     -0.2503     -0.5214     -0.5497     -0.3680     -4.6625E-02  0.3669    
       1.0000      1.0000      1.0000      1.0000      -999.0      -999.0      -999.0      -999.0      -999.0      -999.0    
       1.0000      1.0000       1.046       1.035      1.0000      1.0000      1.0000      -999.0      -999.0      -999.0    
       -999.0      -999.0      -999.0      -999.0      -999.0      -999.0      -999.0      -999.0      -999.0      -999.0    
  38   -999.0      -999.0      -999.0      -999.0      -999.0      -999.0      -999.0      -999.0      -999.0      -999.0    
       -999.0      -999.0      -999.0      -999.0      -999.0      -999.0      -999.0      -999.0      -999.0      -999.0    
       -999.0      -999.0      -999.0      -999.0      -999.0      -999.0      -999.0      -999.0      -999.0      -999.0    
       -999.0      -999.0      -999.0      -999.0      -999.0      -999.0      -999.0      -999.0      -999.0      -999.0    
       1.0000      1.0000      -999.0      1.0000      0.3662      -1.770      -4.483      -8.071      -9.500      -8.427    
       -6.381      -5.653      -6.707      -3.036      -1.025      0.1543      1.0000      -999.0      -999.0      -999.0    
       -999.0      -999.0      1.0000      0.5227      0.1360     -7.1806E-02 -9.8310E-02  3.5906E-02  0.2854      0.6010    
       1.0000      1.0000      1.0000      1.0000      -999.0      -999.0      -999.0      -999.0      -999.0      -999.0    
       -999.0      1.0000       1.027      1.0000      1.0000      -999.0      -999.0      -999.0      -999.0      -999.0    
       -999.0      -999.0      -999.0      -999.0      -999.0      -999.0      -999.0      -999.0      -999.0      -999.0    
  39   -999.0      -999.0      -999.0      -999.0      -999.0      -999.0      -999.0      -999.0      -999.0      -999.0    
       -999.0      -999.0      -999.0      -999.0      -999.0      -999.0      -999.0      -999.0      -999.0      -999.0    
       -999.0      -999.0      -999.0      -999.0      -999.0      -999.0      -999.0      -999.0      -999.0      -999.0    
       -999.0      -999.0      -999.0      -999.0      -999.0      -999.0      -999.0      -999.0      -999.0      -999.0    
       1.0000      1.0000      1.0000      1.0000      1.0000      -1.660      -4.482      -9.244      -8.073      -7.134    
       -5.807      -5.140      -5.098      -2.945      -1.292     -4.8729E-02  1.0000      1.0000      1.0000      -999.0    
       -999.0      -999.0      1.0000      0.7003      0.4355      0.2903      0.2713      0.3704      0.5615      0.7737    
       1.0000      -999.0      -999.0      -999.0      -999.0      -999.0      -999.0      -999.0      -999.0      -999.0    
       -999.0      1.0000      1.0000      1.0000      -999.0      -999.0      -999.0      -999.0      -999.0      -999.0    
       -999.0      -999.0      -999.0      -999.0      -999.0      -999.0      -999.0      -999.0      -999.0      -999.0    
  40   -999.0      -999.0      -999.0      -999.0      -999.0      -999.0      -999.0      -999.0      -999.0      -999.0    
       -999.0      -999.0      -999.0      -999.0      -999.0      -999.0      -999.0      -999.0      -999.0      -999.0    
       -999.0      -999.0      -999.0      -999.0      -999.0      -999.0      -999.0      -999.0      -999.0      -999.0    
       -999.0      -999.0      -999.0      -999.0      -999.0      -999.0      -999.0      -999.0      -999.0      1.0000    
       1.0000      0.6718      1.0000      -999.0      1.0000      -1.545      -3.998      -6.798      -6.641      -6.004    
       -5.108      -4.511      -4.121      -2.772      -1.500     -0.2516      0.7478      0.9844      1.0000      -999.0    
       -999.0      -999.0      1.0000      0.8305      0.6647      0.5802      0.5707      0.6419      0.7940      0.9041    
       1.0000      -999.0      -999.0      -999.0      -999.0      -999.0      -999.0      -999.0      -999.0      -999.0    
       -999.0      -999.0      1.0000      -999.0      -999.0      -999.0      -999.0      -999.0      -999.0      -999.0    
       -999.0      -999.0      -999.0      -999.0      -999.0      -999.0      -999.0      -999.0      -999.0      -999.0    
  41   -999.0      -999.0      -999.0      -999.0      -999.0      -999.0      -999.0      -999.0      -999.0      -999.0    
       -999.0      -999.0      -999.0      -999.0      -999.0      -999.0      -999.0      -999.0      -999.0      -999.0    
       -999.0      -999.0      -999.0      -999.0      1.0000      -999.0      -999.0      -999.0      -999.0      -999.0    
       -999.0      1.0000      -999.0      -999.0      -999.0      -999.0      -999.0      -999.0      1.0000      1.0000    
       0.3788      0.1453      1.0000      1.0000      1.0000      -1.496      -3.459      -5.221      -5.396      -5.002    
       -4.382      -3.881      -3.459      -2.632      -1.756     -0.4393      0.6511      0.9769      1.0000      -999.0    
       -999.0      -999.0      1.0000      0.9220      0.8338      0.8118      0.8104      0.8536      1.0000      1.0000    
       1.0000      -999.0      -999.0      -999.0      -999.0      -999.0      -999.0      -999.0      -999.0      -999.0    
       -999.0      -999.0      -999.0      -999.0      -999.0      -999.0      -999.0      -999.0      -999.0      -999.0    
       -999.0      -999.0      -999.0      -999.0      -999.0      -999.0      -999.0      -999.0      -999.0      -999.0    
  42   -999.0      -999.0      -999.0      -999.0      -999.0      -999.0      -999.0      -999.0      -999.0      -999.0    
       -999.0      -999.0      -999.0      -999.0      -999.0      -999.0      -999.0      -999.0      -999.0      -999.0    
       -999.0      -999.0      -999.0      1.0000      1.0000      -999.0      -999.0      -999.0      -999.0      1.0000    
       1.0000      1.0000      -999.0      -999.0      -999.0      -999.0      -999.0      -999.0      1.0000      0.3666    
      -0.3717     -0.7013      1.0000      1.0000     -0.1065      -1.632      -3.014      -4.134      -4.362      -4.116    
       -3.678      -3.284      -2.960      -2.557      -2.184     -0.6182      0.7104      1.0000      1.0000      -999.0    
       -999.0      -999.0      1.0000      0.9785      0.9472      1.0000      1.0000      1.0000      1.0000      -999.0    
       -999.0      -999.0      -999.0      -999.0      -999.0      -999.0      -999.0      -999.0      -999.0      -999.0    
       -999.0      -999.0      -999.0      -999.0      -999.0      -999.0      -999.0      -999.0      -999.0      -999.0    
       -999.0      -999.0      -999.0      -999.0      -999.0      -999.0      -999.0      -999.0      -999.0      -999.0    
  43   -999.0      -999.0      -999.0      -999.0      -999.0      -999.0      -999.0      -999.0      -999.0      -999.0    
       -999.0      -999.0      -999.0      -999.0      -999.0      -999.0      -999.0      -999.0      -999.0      1.0000    
       -999.0      1.0000      1.0000      1.0000      1.0000      -999.0      -999.0      -999.0      1.0000      1.0000    
       1.0000      1.0000      -999.0      -999.0      -999.0      -999.0      -999.0      1.0000      1.0000     -0.2619    
       -1.258      -2.127      -2.740      -1.192      -1.139      -1.845      -2.679      -3.346      -3.512      -3.338    
       -3.018      -2.723      -2.534      -2.527      -2.990     -0.7858      1.0000      1.0000      -999.0      -999.0    
       -999.0      -999.0      1.0000      1.0000      1.0000      1.0000      1.0000      -999.0      -999.0      -999.0    
       -999.0      -999.0      -999.0      -999.0      -999.0      -999.0      -999.0      -999.0      -999.0      -999.0    
       -999.0      -999.0      -999.0      -999.0      -999.0      -999.0      -999.0      -999.0      -999.0      -999.0    
       -999.0      -999.0      -999.0      -999.0      -999.0      -999.0      -999.0      -999.0      -999.0      -999.0    
  44   -999.0      -999.0      -999.0      -999.0      -999.0      -999.0      -999.0      -999.0      -999.0      -999.0    
       -999.0      -999.0      -999.0      -999.0      -999.0      -999.0      -999.0      1.0000      1.0000      1.0000    
       1.0000      1.0000      1.0000      0.9321      1.0000      1.0000      1.0000      1.0000      1.0000      0.5497    
       0.5916      1.0000      1.0000      1.0000      -999.0      1.0000      1.0000      1.0000      1.0000     -0.9870    
       -2.203      -3.648      -7.134      -3.020      -2.003      -2.060      -2.427      -2.749      -2.810      -2.655    
       -2.404      -2.187      -2.112      -2.421      -4.578     -0.8934      1.0000      -999.0      -999.0      -999.0    
       -999.0      -999.0      1.0000      -999.0      -999.0      -999.0      -999.0      -999.0      -999.0      -999.0    
       -999.0      -999.0      -999.0      -999.0      -999.0      -999.0      -999.0      -999.0      -999.0      -999.0    
       -999.0      -999.0      -999.0      -999.0      -999.0      -999.0      -999.0      -999.0      -999.0      -999.0    
       -999.0      -999.0      -999.0      -999.0      -999.0      -999.0      -999.0      -999.0      -999.0      -999.0    
  45   -999.0      -999.0      -999.0      -999.0      -999.0      -999.0      -999.0      -999.0      -999.0      -999.0    
       -999.0      -999.0      -999.0      -999.0      -999.0      1.0000      1.0000      1.0000      1.0000      0.9690    
       1.0000      1.0000      0.8575      0.8166      1.0000      1.0000      1.0000      1.0000      0.2928     -5.5848E-02
       6.2909E-02  1.0000      1.0000      1.0000      1.0000      1.0000      1.0000     -7.2088E-02 -0.5920      -1.948    
       -3.110      -4.644      -8.379      -4.051      -2.614      -2.229      -2.225      -2.277      -2.222      -2.051    
       -1.836      -1.666      -1.639      -1.865      -2.561     -0.5618      1.0000      1.0000      -999.0      -999.0    
       -999.0      -999.0      -999.0      -999.0      -999.0      -999.0      -999.0      -999.0      -999.0      -999.0    
       -999.0      -999.0      -999.0      -999.0      -999.0      -999.0      -999.0      -999.0      -999.0      -999.0    
       -999.0      -999.0      -999.0      -999.0      -999.0      -999.0      -999.0      -999.0      -999.0      -999.0    
       -999.0      -999.0      -999.0      -999.0      -999.0      -999.0      -999.0      -999.0      -999.0      -999.0    
  46   -999.0      -999.0      -999.0      -999.0      -999.0      -999.0      -999.0      -999.0      -999.0      -999.0    
       -999.0      -999.0      -999.0      -999.0      -999.0      1.0000      1.0000      0.9865      0.9574      0.9076    
       0.8790      0.8052      0.6603      0.6129      1.0000      1.0000      0.2946     -1.9406E-02 -0.5453     -0.8215    
      -0.7102     -0.1271      0.2301      1.0000      1.0000      4.2007E-02 -0.4824      -1.341      -2.004      -3.007    
       -3.962      -5.088      -6.605      -4.365      -3.003      -2.358      -2.073      -1.906      -1.735      -1.532    
       -1.327      -1.178      -1.147      -1.233      -1.335     -0.1632      0.8319      1.0000      1.0000      -999.0    
       -999.0      -999.0      -999.0      -999.0      -999.0      -999.0      -999.0      -999.0      -999.0      -999.0    
       -999.0      -999.0      -999.0      -999.0      -999.0      -999.0      -999.0      -999.0      -999.0      -999.0    
       -999.0      -999.0      -999.0      -999.0      -999.0      -999.0      -999.0      -999.0      -999.0      -999.0    
       -999.0      -999.0      -999.0      -999.0      -999.0      -999.0      -999.0      -999.0      -999.0      -999.0    
  47   -999.0      -999.0      -999.0      -999.0      -999.0      -999.0      -999.0      -999.0      -999.0      -999.0    
       -999.0      -999.0      -999.0      -999.0      -999.0      1.0000      1.0000      0.9636      0.9069      0.8270    
       0.7432      0.6025      0.4094      0.2637      0.2776      5.0678E-02 -0.5498      -1.015      -1.485      -1.726    
       -1.645      -1.231     -0.6899      1.0000      1.0000      -1.072      -1.921      -2.709      -3.371      -4.125    
       -4.813      -5.472      -5.923      -4.508      -3.264      -2.455      -1.953      -1.606      -1.330      -1.083    
      -0.8736     -0.7280     -0.6753     -0.6474     -0.5088      0.2320      0.8383       1.003      1.0000      -999.0    
       -999.0      -999.0      -999.0      -999.0      -999.0      -999.0      -999.0      -999.0      -999.0      -999.0    
       -999.0      -999.0      -999.0      -999.0      -999.0      -999.0      -999.0      -999.0      -999.0      -999.0    
       -999.0      -999.0      -999.0      -999.0      -999.0      -999.0      -999.0      -999.0      -999.0      -999.0    
       -999.0      -999.0      -999.0      -999.0      -999.0      -999.0      -999.0      -999.0      -999.0      -999.0    
  48   -999.0      -999.0      -999.0      -999.0      -999.0      -999.0      -999.0      -999.0      -999.0      -999.0    
       -999.0      -999.0      -999.0      -999.0      -999.0      1.0000      0.9849      0.9328      0.8492      0.7339    
       0.5959      0.3870      0.1184     -0.1563     -0.4071     -0.8269      -1.465      -2.043      -2.521      -2.752    
       -2.705      -2.409      -1.962      -1.125      -1.274      -2.561      -3.424      -4.159      -4.761      -5.307    
       -5.718      -5.956      -5.816      -4.670      -3.472      -2.534      -1.856      -1.359     -0.9863     -0.6958    
      -0.4740     -0.3239     -0.2475     -0.1433      0.1019      0.6129      0.9144      1.0000      1.0000      -999.0    
       -999.0      -999.0      -999.0      -999.0      -999.0      -999.0      -999.0      -999.0      -999.0      -999.0    
       -999.0      -999.0      -999.0      -999.0      -999.0      -999.0      -999.0      -999.0      -999.0      -999.0    
       -999.0      -999.0      -999.0      -999.0      -999.0      -999.0      -999.0      -999.0      -999.0      -999.0    
       -999.0      -999.0      -999.0      -999.0      -999.0      -999.0      -999.0      -999.0      -999.0      -999.0    
[...]
       -999.0      -999.0      -999.0      -999.0      -999.0      -999.0      -999.0      -999.0      -999.0      -999.0    
       -999.0      -999.0      -999.0      -999.0      -999.0      -999.0      1.0000      0.1281     -9.8247E-02  1.0000    
       1.0000      1.0000     -0.2296      1.0000      1.0000      1.0000      1.0000      0.1285      1.0000      -999.0    
       -999.0      -999.0      -999.0      -999.0      -999.0      -999.0      -999.0      -999.0      -999.0      -999.0    
       -999.0      -999.0      -999.0      -999.0      -999.0      -999.0      -999.0      -999.0      -999.0      -999.0    
       -999.0      -999.0      -999.0      -999.0      -999.0      -999.0      -999.0      -999.0      -999.0      -999.0    
       -999.0      -999.0      -999.0      -999.0      -999.0      -999.0      -999.0      -999.0      -999.0      -999.0    
       -999.0      -999.0      -999.0      -999.0      -999.0      -999.0      -999.0      -999.0      -999.0      -999.0    
       -999.0      -999.0      -999.0      -999.0      -999.0      -999.0      -999.0      -999.0      -999.0      -999.0    
  89   -999.0      -999.0      -999.0      -999.0      -999.0      -999.0      -999.0      -999.0      -999.0      -999.0    
       -999.0      -999.0      -999.0      -999.0      -999.0      -999.0      -999.0      -999.0      -999.0      -999.0    
       -999.0      -999.0      -999.0      -999.0      -999.0      -999.0      1.0000      1.0000      1.0000      1.0000    
       -999.0      1.0000      0.4153      1.0000      -999.0      -999.0      1.0000      0.6603      1.0000      -999.0    
       -999.0      -999.0      -999.0      -999.0      -999.0      -999.0      -999.0      -999.0      -999.0      -999.0    
       -999.0      -999.0      -999.0      -999.0      -999.0      -999.0      -999.0      -999.0      -999.0      -999.0    
       -999.0      -999.0      -999.0      -999.0      -999.0      -999.0      -999.0      -999.0      -999.0      -999.0    
       -999.0      -999.0      -999.0      -999.0      -999.0      -999.0      -999.0      -999.0      -999.0      -999.0    
       -999.0      -999.0      -999.0      -999.0      -999.0      -999.0      -999.0      -999.0      -999.0      -999.0    
       -999.0      -999.0      -999.0      -999.0      -999.0      -999.0      -999.0      -999.0      -999.0      -999.0    
  90   -999.0      -999.0      -999.0      -999.0      -999.0      -999.0      -999.0      -999.0      -999.0      -999.0    
       -999.0      -999.0      -999.0      -999.0      -999.0      -999.0      -999.0      -999.0      -999.0      -999.0    
       -999.0      -999.0      -999.0      -999.0      -999.0      -999.0      -999.0      -999.0      1.0000      -999.0    
       -999.0      1.0000      0.7294      1.0000      -999.0      -999.0      1.0000      1.0000      1.0000      -999.0    
       -999.0      -999.0      -999.0      -999.0      -999.0      -999.0      -999.0      -999.0      -999.0      -999.0    
       -999.0      -999.0      -999.0      -999.0      -999.0      -999.0      -999.0      -999.0      -999.0      -999.0    
       -999.0      -999.0      -999.0      -999.0      -999.0      -999.0      -999.0      -999.0      -999.0      -999.0    
       -999.0      -999.0      -999.0      -999.0      -999.0      -999.0      -999.0      -999.0      -999.0      -999.0    
       -999.0      -999.0      -999.0      -999.0      -999.0      -999.0      -999.0      -999.0      -999.0      -999.0    
       -999.0      -999.0      -999.0      -999.0      -999.0      -999.0      -999.0      -999.0      -999.0      -999.0    
  91   -999.0      -999.0      -999.0      -999.0      -999.0      -999.0      -999.0      -999.0      -999.0      -999.0    
       -999.0      -999.0      -999.0      -999.0      -999.0      -999.0      -999.0      -999.0      -999.0      -999.0    
       -999.0      -999.0      -999.0      -999.0      -999.0      -999.0      -999.0      -999.0      1.0000      -999.0    
       -999.0      1.0000      0.8832      1.0000      -999.0      -999.0      -999.0      1.0000      -999.0      -999.0    
       -999.0      -999.0      -999.0      -999.0      -999.0      -999.0      -999.0      -999.0      -999.0      -999.0    
       -999.0      -999.0      -999.0      -999.0      -999.0      -999.0      -999.0      -999.0      -999.0      -999.0    
       -999.0      -999.0      -999.0      -999.0      -999.0      -999.0      -999.0      -999.0      -999.0      -999.0    
       -999.0      -999.0      -999.0      -999.0      -999.0      -999.0      -999.0      -999.0      -999.0      -999.0    
       -999.0      -999.0      -999.0      -999.0      -999.0      -999.0      -999.0      -999.0      -999.0      -999.0    
       -999.0      -999.0      -999.0      -999.0      -999.0      -999.0      -999.0      -999.0      -999.0      -999.0    
  92   -999.0      -999.0      -999.0      -999.0      -999.0      -999.0      -999.0      -999.0      -999.0      -999.0    
       -999.0      -999.0      -999.0      -999.0      -999.0      -999.0      -999.0      -999.0      -999.0      -999.0    
       -999.0      -999.0      -999.0      -999.0      -999.0      -999.0      -999.0      -999.0      -999.0      -999.0    
       1.0000      1.0000      0.9595      1.0000      -999.0      -999.0      -999.0      -999.0      -999.0      -999.0    
       -999.0      -999.0      -999.0      -999.0      -999.0      -999.0      -999.0      -999.0      -999.0      -999.0    
       -999.0      -999.0      -999.0      -999.0      -999.0      -999.0      -999.0      -999.0      -999.0      -999.0    
       -999.0      -999.0      -999.0      -999.0      -999.0      -999.0      -999.0      -999.0      -999.0      -999.0    
       -999.0      -999.0      -999.0      -999.0      -999.0      -999.0      -999.0      -999.0      -999.0      -999.0    
       -999.0      -999.0      -999.0      -999.0      -999.0      -999.0      -999.0      -999.0      -999.0      -999.0    
       -999.0      -999.0      -999.0      -999.0      -999.0      -999.0      -999.0      -999.0      -999.0      -999.0    
  93   -999.0      -999.0      -999.0      -999.0      -999.0      -999.0      -999.0      -999.0      -999.0      -999.0    
       -999.0      -999.0      -999.0      -999.0      -999.0      -999.0      -999.0      -999.0      -999.0      -999.0    
       -999.0      -999.0      -999.0      -999.0      -999.0      -999.0      -999.0      -999.0      -999.0      -999.0    
       1.0000      1.0000      1.0000      1.0000      -999.0      -999.0      -999.0      -999.0      -999.0      -999.0    
       -999.0      -999.0      -999.0      -999.0      -999.0      -999.0      -999.0      -999.0      -999.0      -999.0    
       -999.0      -999.0      -999.0      -999.0      -999.0      -999.0      -999.0      -999.0      -999.0      -999.0    
       -999.0      -999.0      -999.0      -999.0      -999.0      -999.0      -999.0      -999.0      -999.0      -999.0    
       -999.0      -999.0      -999.0      -999.0      -999.0      -999.0      -999.0      -999.0      -999.0      -999.0    
       -999.0      -999.0      -999.0      -999.0      -999.0      -999.0      -999.0      -999.0      -999.0      -999.0    
       -999.0      -999.0      -999.0      -999.0      -999.0      -999.0      -999.0      -999.0      -999.0      -999.0    
  94   -999.0      -999.0      -999.0      -999.0      -999.0      -999.0      -999.0      -999.0      -999.0      -999.0    
       -999.0      -999.0      -999.0      -999.0      -999.0      -999.0      -999.0      -999.0      -999.0      -999.0    
       -999.0      -999.0      -999.0      -999.0      -999.0      -999.0      -999.0      -999.0      -999.0      -999.0    
       -999.0      1.0000      1.0000      -999.0      -999.0      -999.0      -999.0      -999.0      -999.0      -999.0    
       -999.0      -999.0      -999.0      -999.0      -999.0      -999.0      -999.0      -999.0      -999.0      -999.0    
       -999.0      -999.0      -999.0      -999.0      -999.0      -999.0      -999.0      -999.0      -999.0      -999.0    
       -999.0      -999.0      -999.0      -999.0      -999.0      -999.0      -999.0      -999.0      -999.0      -999.0    
       -999.0      -999.0      -999.0      -999.0      -999.0      -999.0      -999.0      -999.0      -999.0      -999.0    
       -999.0      -999.0      -999.0      -999.0      -999.0      -999.0      -999.0      -999.0      -999.0      -999.0    
       -999.0      -999.0      -999.0      -999.0      -999.0      -999.0      -999.0      -999.0      -999.0      -999.0    
  95   -999.0      -999.0      -999.0      -999.0      -999.0      -999.0      -999.0      -999.0      -999.0      -999.0    
       -999.0      -999.0      -999.0      -999.0      -999.0      -999.0      -999.0      -999.0      -999.0      -999.0    
       -999.0      -999.0      -999.0      -999.0      -999.0      -999.0      -999.0      -999.0      -999.0      -999.0    
       -999.0      1.0000      1.0000      -999.0      -999.0      -999.0      -999.0      -999.0      -999.0      -999.0    
       -999.0      -999.0      -999.0      -999.0      -999.0      -999.0      -999.0      -999.0      -999.0      -999.0    
       -999.0      -999.0      -999.0      -999.0      -999.0      -999.0      -999.0      -999.0      -999.0      -999.0    
       -999.0      -999.0      -999.0      -999.0      -999.0      -999.0      -999.0      -999.0      -999.0      -999.0    
       -999.0      -999.0      -999.0      -999.0      -999.0      -999.0      -999.0      -999.0      -999.0      -999.0    
       -999.0      -999.0      -999.0      -999.0      -999.0      -999.0      -999.0      -999.0      -999.0      -999.0    
       -999.0      -999.0      -999.0      -999.0      -999.0      -999.0      -999.0      -999.0      -999.0      -999.0    
  96   -999.0      -999.0      -999.0      -999.0      -999.0      -999.0      -999.0      -999.0      -999.0      -999.0    
       -999.0      -999.0      -999.0      -999.0      -999.0      -999.0      -999.0      -999.0      -999.0      -999.0    
       -999.0      -999.0      -999.0      -999.0      -999.0      -999.0      -999.0      -999.0      -999.0      -999.0    
       -999.0      1.0000      1.0000      -999.0      -999.0      -999.0      -999.0      -999.0      -999.0      -999.0    
       -999.0      -999.0      -999.0      -999.0      -999.0      -999.0      -999.0      -999.0      -999.0      -999.0    
       -999.0      -999.0      -999.0      -999.0      -999.0      -999.0      -999.0      -999.0      -999.0      -999.0    
       -999.0      -999.0      -999.0      -999.0      -999.0      -999.0      -999.0      -999.0      -999.0      -999.0    
       -999.0      -999.0      -999.0      -999.0      -999.0      -999.0      -999.0      -999.0      -999.0      -999.0    
       -999.0      -999.0      -999.0      -999.0      -999.0      -999.0      -999.0      -999.0      -999.0      -999.0    
       -999.0      -999.0      -999.0      -999.0      -999.0      -999.0      -999.0      -999.0      -999.0      -999.0    
  97   -999.0      -999.0      -999.0      -999.0      -999.0      -999.0      -999.0      -999.0      -999.0      -999.0    
       -999.0      -999.0      -999.0      -999.0      -999.0      -999.0      -999.0      -999.0      -999.0      -999.0    
       -999.0      -999.0      -999.0      -999.0      -999.0      -999.0      -999.0      -999.0      -999.0      -999.0    
       -999.0      -999.0      -999.0      -999.0      -999.0      -999.0      -999.0      -999.0      -999.0      -999.0    
       -999.0      -999.0      -999.0      -999.0      -999.0      -999.0      -999.0      -999.0      -999.0      -999.0    
       -999.0      -999.0      -999.0      -999.0      -999.0      -999.0      -999.0      -999.0      -999.0      -999.0    
       -999.0      -999.0      -999.0      -999.0      -999.0      -999.0      -999.0      -999.0      -999.0      -999.0    
       -999.0      -999.0      -999.0      -999.0      -999.0      -999.0      -999.0      -999.0      -999.0      -999.0    
       -999.0      -999.0      -999.0      -999.0      -999.0      -999.0      -999.0      -999.0      -999.0      -999.0    
       -999.0      -999.0      -999.0      -999.0      -999.0      -999.0      -999.0      -999.0      -999.0      -999.0    
  98   -999.0      -999.0      -999.0      -999.0      -999.0      -999.0      -999.0      -999.0      -999.0      -999.0    
       -999.0      -999.0      -999.0      -999.0      -999.0      -999.0      -999.0      -999.0      -999.0      -999.0    
       -999.0      -999.0      -999.0      -999.0      -999.0      -999.0      -999.0      -999.0      -999.0      -999.0    
       -999.0      -999.0      -999.0      -999.0      -999.0      -999.0      -999.0      -999.0      -999.0      -999.0    
       -999.0      -999.0      -999.0      -999.0      -999.0      -999.0      -999.0      -999.0      -999.0      -999.0    
       -999.0      -999.0      -999.0      -999.0      -999.0      -999.0      -999.0      -999.0      -999.0      -999.0    
       -999.0      -999.0      -999.0      -999.0      -999.0      -999.0      -999.0      -999.0      -999.0      -999.0    
       -999.0      -999.0      -999.0      -999.0      -999.0      -999.0      -999.0      -999.0      -999.0      -999.0    
       -999.0      -999.0      -999.0      -999.0      -999.0      -999.0      -999.0      -999.0      -999.0      -999.0    
       -999.0      -999.0      -999.0      -999.0      -999.0      -999.0      -999.0      -999.0      -999.0      -999.0    
  99   -999.0      -999.0      -999.0      -999.0      -999.0      -999.0      -999.0      -999.0      -999.0      -999.0    
       -999.0      -999.0      -999.0      -999.0      -999.0      -999.0      -999.0      -999.0      -999.0      -999.0    
       -999.0      -999.0      -999.0      -999.0      -999.0      -999.0      -999.0      -999.0      -999.0      -999.0    
       -999.0      -999.0      -999.0      -999.0      -999.0      -999.0      -999.0      -999.0      -999.0      -999.0    
       -999.0      -999.0      -999.0      -999.0      -999.0      -999.0      -999.0      -999.0      -999.0      -999.0    
       -999.0      -999.0      -999.0      -999.0      -999.0      -999.0      -999.0      -999.0      -999.0      -999.0    
       -999.0      -999.0      -999.0      -999.0      -999.0      -999.0      -999.0      -999.0      -999.0      -999.0    
       -999.0      -999.0      -999.0      -999.0      -999.0      -999.0      -999.0      -999.0      -999.0      -999.0    
       -999.0      -999.0      -999.0      -999.0      -999.0      -999.0      -999.0      -999.0      -999.0      -999.0    
       -999.0      -999.0      -999.0      -999.0      -999.0      -999.0      -999.0      -999.0      -999.0      -999.0    
 100   -999.0      -999.0      -999.0      -999.0      -999.0      -999.0      -999.0      -999.0      -999.0      -999.0    
       -999.0      -999.0      -999.0      -999.0      -999.0      -999.0      -999.0      -999.0      -999.0      -999.0    
       -999.0      -999.0      -999.0      -999.0      -999.0      -999.0      -999.0      -999.0      -999.0      -999.0    
       -999.0      -999.0      -999.0      -999.0      -999.0      -999.0      -999.0      -999.0      -999.0      -999.0    
       -999.0      -999.0      -999.0      -999.0      -999.0      -999.0      -999.0      -999.0      -999.0      -999.0    
       -999.0      -999.0      -999.0      -999.0      -999.0      -999.0      -999.0      -999.0      -999.0      -999.0    
       -999.0      -999.0      -999.0      -999.0      -999.0      -999.0      -999.0      -999.0      -999.0      -999.0    
       -999.0      -999.0      -999.0      -999.0      -999.0      -999.0      -999.0      -999.0      -999.0      -999.0    
       -999.0      -999.0      -999.0      -999.0      -999.0      -999.0      -999.0      -999.0      -999.0      -999.0    
       -999.0      -999.0      -999.0      -999.0      -999.0      -999.0      -999.0      -999.0      -999.0      -999.0    

 HEAD WILL BE SAVED ON UNIT   51 AT END OF TIME STEP    1, STRESS PERIOD    1
1
  VOLUMETRIC BUDGET FOR ENTIRE MODEL AT END OF TIME STEP    1, STRESS PERIOD   1
  ------------------------------------------------------------------------------

     CUMULATIVE VOLUMES      L**3       RATES FOR THIS TIME STEP      L**3/T
     ------------------                 ------------------------

           IN:                                      IN:
           ---                                      ---
             STORAGE =           0.0000               STORAGE =           0.0000
       CONSTANT HEAD =     1441635.8750         CONSTANT HEAD =     1441635.8750
               WELLS =           0.0000                 WELLS =           0.0000
            RECHARGE =      433445.9062              RECHARGE =      433445.9062

            TOTAL IN =     1875081.7500              TOTAL IN =     1875081.7500

          OUT:                                     OUT:
          ----                                     ----
             STORAGE =           0.0000               STORAGE =           0.0000
       CONSTANT HEAD =       14983.4561         CONSTANT HEAD =       14983.4561
               WELLS =     1860000.0000                 WELLS =     1860000.0000
            RECHARGE =          98.3521              RECHARGE =          98.3521

           TOTAL OUT =     1875081.8750             TOTAL OUT =     1875081.8750

            IN - OUT =          -0.1250              IN - OUT =          -0.1250

 PERCENT DISCREPANCY =          -0.00     PERCENT DISCREPANCY =          -0.00






         TIME SUMMARY AT END OF TIME STEP    1 IN STRESS PERIOD    1
                    SECONDS     MINUTES      HOURS       DAYS        YEARS
                    -----------------------------------------------------------
   TIME STEP LENGTH  86400.      1440.0      24.000     1.00000     2.73785E-03
 STRESS PERIOD TIME  86400.      1440.0      24.000     1.00000     2.73785E-03
         TOTAL TIME  86400.      1440.0      24.000     1.00000     2.73785E-03
1

 HEAD AND DRAWDOWN OBSERVATIONS
 OBSERVATION       OBSERVED           SIMULATED
   NAME              VALUE              VALUE             DIFFERENCE
 --------------------------------------------------------------------
 hed1            6.5461001396       -37.342887878        43.888988495    
 hed2            6.7213997841       -13.598551750        20.319952011    
 hed3            5.3123002052       -20.276729584        25.589029312    
 hed4            1.6268999577       -3.2873916626        4.9142913818    
 hed5            1.5520000458       -2.8975403309        4.4495401382    
 hed6            1.1732000113       -1.8089082241        2.9821081161    
 hed7            4.3852000237       -24.328519821        28.713720322    
 hed8            1.2960000038       -1.3217965364        2.6177964211    
 hed9            3.0701000690       -7.0710244179        10.141124725    
 hed10           1.2247999907       0.12156365812        1.1032363176    
 hed11           6.3680000305       -38.157855988        44.525856018    
 hed12           6.4444999695       -36.237598419        42.682098389    
 hed13           6.6686000824       -37.895877838        44.564476013    
 hed14           3.3817999363       -20.683675766        24.065475464    
 hed15           1.1183999777       -1.2877763510        2.4061763287    
 hed16           2.6082999706       -1.7247756720        4.3330755234    
 hed17           1.1607999802       -2.9058444500        4.0666446686    

 HEAD/DRAWDOWN SUM OF SQUARED DIFFERENCE:    1.03927E+04

 Run end date and time (yyyy/mm/dd hh:mm:ss): 2018/04/26  9:53:52
 Elapsed run time:  0.047 Seconds

