                                  MODFLOW-2005     
      U.S. GEOLOGICAL SURVEY MODULAR FINITE-DIFFERENCE GROUND-WATER FLOW MODEL
                            VERSION 1.11.00 8/8/2013

 LIST FILE: test_no_4.list
                         UNIT    2

 OPENING test_no_4.dis
 FILE TYPE:DIS   UNIT   11   STATUS:OLD    
 FORMAT:FORMATTED              ACCESS:SEQUENTIAL          

 OPENING test_no_4.bas
 FILE TYPE:BAS6   UNIT   13   STATUS:OLD    
 FORMAT:FORMATTED              ACCESS:SEQUENTIAL          

 OPENING test_no_4.lpf
 FILE TYPE:LPF   UNIT   15   STATUS:OLD    
 FORMAT:FORMATTED              ACCESS:SEQUENTIAL          

 OPENING test_no_4.rch
 FILE TYPE:RCH   UNIT   19   STATUS:OLD    
 FORMAT:FORMATTED              ACCESS:SEQUENTIAL          

 OPENING test_no_4.wel
 FILE TYPE:WEL   UNIT   20   STATUS:OLD    
 FORMAT:FORMATTED              ACCESS:SEQUENTIAL          

 OPENING test_no_4.pcg
 FILE TYPE:PCG   UNIT   27   STATUS:OLD    
 FORMAT:FORMATTED              ACCESS:SEQUENTIAL          

 OPENING test_no_4.oc
 FILE TYPE:OC   UNIT   14   STATUS:OLD    
 FORMAT:FORMATTED              ACCESS:SEQUENTIAL          

 OPENING test_no_4.cbc
 FILE TYPE:DATA(BINARY)   UNIT   40   STATUS:REPLACE
 FORMAT:BINARY                 ACCESS:SEQUENTIAL          

 OPENING test_no_4.hds
 FILE TYPE:DATA(BINARY)   UNIT   51   STATUS:REPLACE
 FORMAT:BINARY                 ACCESS:SEQUENTIAL          

 BAS -- BASIC PACKAGE, VERSION 7, 5/2/2005 INPUT READ FROM UNIT   13
 
 MODFLOW was compiled using mixed precision
 Precision of REAL variables:           6
 Precision of DOUBLE PRECISION variables:          15

 DISCRETIZATION INPUT DATA READ FROM UNIT   11
 # DIS package for  MODFLOW-2005, generated by Flopy.
    1 LAYERS       100 ROWS       100 COLUMNS
    1 STRESS PERIOD(S) IN SIMULATION
 MODEL TIME UNIT IS DAYS
 MODEL LENGTH UNIT IS METERS
  Confining bed flag for each layer:
   0



                               DELR
 READING ON UNIT   11 WITH FORMAT: (100E15.6)          



                               DELC
 READING ON UNIT   11 WITH FORMAT: (100E15.6)          



           TOP ELEVATION OF LAYER 1
 READING ON UNIT   11 WITH FORMAT: (FREE)              



             MODEL LAYER BOTTOM EL. FOR LAYER   1
 READING ON UNIT   11 WITH FORMAT: (FREE)              


 STRESS PERIOD     LENGTH       TIME STEPS     MULTIPLIER FOR DELT    SS FLAG
 ----------------------------------------------------------------------------
        1        1.0000000          1                    1.000         SS

 STEADY-STATE SIMULATION



 
 # BAS6 package for  MODFLOW-2005, generated by Flopy.                           
 THE FREE FORMAT OPTION HAS BEEN SELECTED



                     BOUNDARY ARRAY FOR LAYER   1
 READING ON UNIT   13 WITH FORMAT: (FREE)              

 AQUIFER HEAD WILL BE SET TO  -999.00     AT ALL NO-FLOW NODES (IBOUND=0).



                       INITIAL HEAD FOR LAYER   1
 READING ON UNIT   13 WITH FORMAT: (FREE)              
 # OC package for  MODFLOW-2005, generated by Flopy.

 OUTPUT CONTROL IS SPECIFIED ONLY AT TIME STEPS FOR WHICH OUTPUT IS DESIRED
 COMPACT CELL-BY-CELL BUDGET FILES WILL BE WRITTEN
 AUXILIARY DATA WILL BE SAVED IN CELL-BY-CELL BUDGET FILES
 HEAD PRINT FORMAT CODE IS   0    DRAWDOWN PRINT FORMAT CODE IS   0
 HEADS WILL BE SAVED ON UNIT   51    DRAWDOWNS WILL BE SAVED ON UNIT    0

 LPF -- LAYER-PROPERTY FLOW PACKAGE, VERSION 7, 5/2/2005
         INPUT READ FROM UNIT   15
 # LPF package for  MODFLOW-2005, generated by Flopy.
 CELL-BY-CELL FLOWS WILL BE SAVED ON UNIT   40
 HEAD AT CELLS THAT CONVERT TO DRY=  -888.00    
 No named parameters

   LAYER FLAGS:
 LAYER       LAYTYP        LAYAVG         CHANI        LAYVKA        LAYWET
 ---------------------------------------------------------------------------
    1             1             0    -1.000E+00             1             0

   INTERPRETATION OF LAYER FLAGS:
                        INTERBLOCK     HORIZONTAL    DATA IN
         LAYER TYPE   TRANSMISSIVITY   ANISOTROPY   ARRAY VKA   WETTABILITY
 LAYER      (LAYTYP)      (LAYAVG)       (CHANI)      (LAYVKA)      (LAYWET)
 ---------------------------------------------------------------------------
    1   CONVERTIBLE      HARMONIC      VARIABLE    ANISOTROPY  NON-WETTABLE

 WETTING CAPABILITY IS NOT ACTIVE IN ANY LAYER



              HYD. COND. ALONG ROWS FOR LAYER   1
 READING ON UNIT   15 WITH FORMAT: (FREE)              

   HORIZ. ANI. (COL./ROW) =  1.000000     FOR LAYER   1

  HORIZ. TO VERTICAL ANI. =   3.00000     FOR LAYER   1

 WEL -- WELL PACKAGE, VERSION 7, 5/2/2005 INPUT READ FROM UNIT   20
 # WEL package for  MODFLOW-2005, generated by Flopy.
 No named parameters
 MAXIMUM OF     62 ACTIVE WELLS AT ONE TIME
 CELL-BY-CELL FLOWS WILL BE SAVED ON UNIT   40
 AUXILIARY WELL VARIABLE: IFACE           
 AUXILIARY WELL VARIABLE: QFACT           
 AUXILIARY WELL VARIABLE: CELLGRP         


     0 Well parameters

 RCH -- RECHARGE PACKAGE, VERSION 7, 5/2/2005 INPUT READ FROM UNIT   19
 # RCH package for  MODFLOW-2005, generated by Flopy.
 No named parameters
 OPTION 3 -- RECHARGE TO HIGHEST ACTIVE NODE IN EACH VERTICAL COLUMN
 CELL-BY-CELL FLOWS WILL BE SAVED ON UNIT   40


     0 Recharge parameters

 PCG -- CONJUGATE-GRADIENT SOLUTION PACKAGE, VERSION 7, 5/2/2005
 # PCG package for  MODFLOW-2005, generated by Flopy.
 MAXIMUM OF     50 CALLS OF SOLUTION ROUTINE
 MAXIMUM OF     30 INTERNAL ITERATIONS PER CALL TO SOLUTION ROUTINE
 MATRIX PRECONDITIONING TYPE :    1



                                    SOLUTION BY THE CONJUGATE-GRADIENT METHOD
                                   -------------------------------------------
                    MAXIMUM NUMBER OF CALLS TO PCG ROUTINE =       50
                        MAXIMUM ITERATIONS PER CALL TO PCG =       30
                               MATRIX PRECONDITIONING TYPE =        1
        RELAXATION FACTOR (ONLY USED WITH PRECOND. TYPE 1) =    0.10000E+01
 PARAMETER OF POLYNOMIAL PRECOND. = 2 (2) OR IS CALCULATED :        0
                         HEAD CHANGE CRITERION FOR CLOSURE =    0.10000E-04
                     RESIDUAL CHANGE CRITERION FOR CLOSURE =    0.10000E-04
            PCG HEAD AND RESIDUAL CHANGE PRINTOUT INTERVAL =      999
     PRINTING FROM SOLVER IS LIMITED(1) OR SUPPRESSED (>1) =        3
                            STEADY-STATE DAMPING PARAMETER =    0.10000E+01
                               TRANSIENT DAMPING PARAMETER =    0.10000E+01
1
                            STRESS PERIOD NO.    1, LENGTH =  1.0000000    
                            -----------------------------------------------

                              NUMBER OF TIME STEPS =     1

                               MULTIPLIER FOR DELT =     1.000

                            INITIAL TIME STEP SIZE =  1.0000000    

 WELL NO.  LAYER   ROW   COL   STRESS RATE         IFACE           QFACT           CELLGRP         
 --------------------------------------------------------------------------------------------------
      1      1     56     28     -1000.0           0.000          1.0000          1.0000    
      2      1     55     29     -1000.0           0.000          1.0000           2.000    
      3      1     66     36     -1000.0           0.000          1.0000           3.000    
      4      1     66     40     -1000.0           0.000          1.0000           4.000    
      5      1     65     41     -1000.0           0.000          1.0000           5.000    
      6      1     65     41     -1000.0           0.000          1.0000           6.000    
      7      1     65     41     -1000.0           0.000          1.0000           7.000    
      8      1     65     41     -1000.0           0.000          1.0000           8.000    
      9      1     64     41     -1000.0           0.000          1.0000           9.000    
     10      1     63     41     -1000.0           0.000          1.0000          10.000    
     11      1     62     41     -1000.0           0.000          1.0000           11.00    
     12      1     61     39     -1000.0           0.000          1.0000           12.00    
     13      1     61     39     -1000.0           0.000          1.0000           13.00    
     14      1     79     36     -1000.0           0.000          1.0000           14.00    
     15      1     79     36     -1000.0           0.000          1.0000           15.00    
     16      1     79     36     -1000.0           0.000          1.0000           16.00    
     17      1     78     38     -1000.0           0.000          1.0000           17.00    
     18      1     70     28     -1000.0           0.000          1.0000           18.00    
     19      1     71     29     -1000.0           0.000          1.0000           19.00    
     20      1     72     29     -1000.0           0.000          1.0000           20.00    
     21      1     74     28     -1000.0           0.000          1.0000           21.00    
     22      1     74     27     -1000.0           0.000          1.0000           22.00    
     23      1     76     30     -1000.0           0.000          1.0000           23.00    
     24      1     76     30     -1000.0           0.000          1.0000           24.00    
     25      1     77     30     -1000.0           0.000          1.0000           25.00    
     26      1     78     30     -1000.0           0.000          1.0000           26.00    
     27      1     61     39     -1000.0           0.000          1.0000           27.00    
     28      1     33     49     -1000.0           0.000          1.0000           28.00    
     29      1     35     50     -1000.0           0.000          1.0000           29.00    
     30      1     36     50     -1000.0           0.000          1.0000           30.00    
     31      1     37     49     -1000.0           0.000          1.0000           31.00    
     32      1     37     53     -1000.0           0.000          1.0000           32.00    
     33      1     30     64     -1000.0           0.000          1.0000           33.00    
     34      1     29     64     -1000.0           0.000          1.0000           34.00    
     35      1     29     78     -1000.0           0.000          1.0000           35.00    
     36      1     19     94     -1000.0           0.000          1.0000           36.00    
     37      1     20     93     -1000.0           0.000          1.0000           37.00    
     38      1     27     88     -1000.0           0.000          1.0000           38.00    
     39      1     44     43     -1000.0           0.000          1.0000           39.00    
     40      1     45     43     -1000.0           0.000          1.0000           40.00    
     41      1     66     40     -1000.0           0.000          1.0000           41.00    
     42      1     30     64     -1000.0           0.000          1.0000           42.00    
     43      1     37     53     -1000.0           0.000          1.0000           43.00    
     44      1     76     36     -1000.0           0.000          1.0000           44.00    
     45      1     21     61     -1000.0           0.000          1.0000           45.00    
     46      1     71     38     -1000.0           0.000          1.0000           46.00    
     47      1     29     67     -1000.0           0.000          1.0000           47.00    
     48      1     29     67     -1000.0           0.000          1.0000           48.00    
     49      1     72     37     -1000.0           0.000          1.0000           49.00    
     50      1     56     11     -1000.0           0.000          1.0000           50.00    
     51      1     56     11     -1000.0           0.000          1.0000           51.00    
     52      1     28     88     -1000.0           0.000          1.0000           52.00    
     53      1     72     35     -1000.0           0.000          1.0000           53.00    
     54      1     21     62     -1000.0           0.000          1.0000           54.00    
     55      1     72     34     -1000.0           0.000          1.0000           55.00    
     56      1     19     94     -1000.0           0.000          1.0000           56.00    
     57      1     26     94     -1000.0           0.000          1.0000           57.00    
     58      1     26     94     -1000.0           0.000          1.0000           58.00    
     59      1     24     72     -1000.0           0.000          1.0000           59.00    
     60      1     25     72     -1000.0           0.000          1.0000           60.00    
     61      1     44     55     -1000.0           0.000          1.0000           61.00    
     62      1     39     48     -1000.0           0.000          1.0000           62.00    

     62 WELLS



                           RECHARGE
 READING ON UNIT   19 WITH FORMAT: (FREE)              
 
 SOLVING FOR HEAD 

 OUTPUT CONTROL FOR STRESS PERIOD    1   TIME STEP    1
    PRINT HEAD FOR ALL LAYERS
    PRINT BUDGET
    SAVE HEAD FOR ALL LAYERS
    SAVE BUDGET
 UBDSV2 SAVING "   CONSTANT HEAD" ON UNIT  40 AT TIME STEP  1, STRESS PERIOD   1
 UBDSV1 SAVING "FLOW RIGHT FACE " ON UNIT  40 AT TIME STEP  1, STRESS PERIOD   1
 UBDSV1 SAVING "FLOW FRONT FACE " ON UNIT  40 AT TIME STEP  1, STRESS PERIOD   1
 UBDSV4 SAVING "           WELLS" ON UNIT  40 AT TIME STEP  1, STRESS PERIOD   1
 UBDSV3 SAVING "        RECHARGE" ON UNIT  40 AT TIME STEP  1, STRESS PERIOD   1
1
              HEAD IN LAYER   1 AT END OF TIME STEP   1 IN STRESS PERIOD    1
  ---------------------------------------------------------------------------

            1           2           3           4           5           6           7           8           9          10
           11          12          13          14          15          16          17          18          19          20
           21          22          23          24          25          26          27          28          29          30
           31          32          33          34          35          36          37          38          39          40
           41          42          43          44          45          46          47          48          49          50
           51          52          53          54          55          56          57          58          59          60
           61          62          63          64          65          66          67          68          69          70
           71          72          73          74          75          76          77          78          79          80
           81          82          83          84          85          86          87          88          89          90
           91          92          93          94          95          96          97          98          99         100
 ........................................................................................................................
   1   -999.0      -999.0      -999.0      -999.0      -999.0      -999.0      -999.0      -999.0      -999.0      -999.0    
       -999.0      -999.0      -999.0      -999.0      -999.0      -999.0      -999.0      -999.0      -999.0      -999.0    
       -999.0      -999.0      -999.0      -999.0      -999.0      -999.0      -999.0      -999.0      -999.0      -999.0    
       -999.0      -999.0      -999.0      -999.0      -999.0      -999.0      -999.0      -999.0      -999.0      -999.0    
       -999.0      -999.0      -999.0      -999.0      -999.0      -999.0      -999.0      -999.0      -999.0      -999.0    
       -999.0      -999.0      -999.0      -999.0      -999.0      -999.0      -999.0      -999.0      -999.0      -999.0    
       -999.0      -999.0      -999.0      -999.0      -999.0      -999.0      -999.0      -999.0      -999.0      -999.0    
       -999.0      -999.0      -999.0      -999.0      -999.0      -999.0      -999.0      -999.0      -999.0      -999.0    
       -999.0      -999.0      -999.0      -999.0      -999.0      -999.0      -999.0      -999.0      -999.0      -999.0    
       -999.0      -999.0      -999.0      -999.0      -999.0      -999.0      -999.0      -999.0      -999.0      -999.0    
   2   -999.0      -999.0      -999.0      -999.0      -999.0      -999.0      -999.0      -999.0      -999.0      -999.0    
       -999.0      -999.0      -999.0      -999.0      -999.0      -999.0      -999.0      -999.0      -999.0      -999.0    
       -999.0      -999.0      -999.0      -999.0      -999.0      -999.0      -999.0      -999.0      -999.0      -999.0    
       -999.0      -999.0      -999.0      -999.0      -999.0      -999.0      -999.0      -999.0      -999.0      -999.0    
       -999.0      -999.0      -999.0      -999.0      -999.0      -999.0      -999.0      -999.0      -999.0      -999.0    
       -999.0      -999.0      -999.0      -999.0      -999.0      -999.0      -999.0      -999.0      -999.0      -999.0    
       -999.0      -999.0      -999.0      -999.0      -999.0      -999.0      -999.0      -999.0      -999.0      -999.0    
       -999.0      -999.0      -999.0      -999.0      -999.0      -999.0      -999.0      -999.0      -999.0      -999.0    
       -999.0      -999.0      -999.0      -999.0      -999.0      -999.0      -999.0      -999.0      -999.0      -999.0    
       -999.0      -999.0      -999.0      -999.0      -999.0      -999.0      -999.0      -999.0      -999.0      -999.0    
   3   -999.0      -999.0      -999.0      -999.0      -999.0      -999.0      -999.0      -999.0      -999.0      -999.0    
       -999.0      -999.0      -999.0      -999.0      -999.0      -999.0      -999.0      -999.0      -999.0      -999.0    
       -999.0      -999.0      -999.0      -999.0      -999.0      -999.0      -999.0      -999.0      -999.0      -999.0    
       -999.0      -999.0      -999.0      -999.0      -999.0      -999.0      -999.0      -999.0      -999.0      -999.0    
       -999.0      -999.0      -999.0      -999.0      -999.0      -999.0      -999.0      -999.0      -999.0      -999.0    
       -999.0      -999.0      -999.0      -999.0      -999.0      -999.0      -999.0      -999.0      -999.0      -999.0    
       -999.0      -999.0      -999.0      -999.0      -999.0      -999.0      -999.0      -999.0      -999.0      -999.0    
       -999.0      -999.0      -999.0      -999.0      -999.0      -999.0      -999.0      -999.0      -999.0      -999.0    
       -999.0      -999.0      -999.0      -999.0      -999.0      -999.0      -999.0      -999.0      -999.0      -999.0    
       -999.0      -999.0      -999.0      -999.0      -999.0      -999.0      -999.0      -999.0      -999.0      -999.0    
   4   -999.0      -999.0      -999.0      -999.0      -999.0      -999.0      -999.0      -999.0      -999.0      -999.0    
       -999.0      -999.0      -999.0      -999.0      -999.0      -999.0      -999.0      -999.0      -999.0      -999.0    
       -999.0      -999.0      -999.0      -999.0      -999.0      -999.0      -999.0      -999.0      -999.0      -999.0    
       -999.0      -999.0      -999.0      -999.0      -999.0      -999.0      -999.0      -999.0      -999.0      -999.0    
       -999.0      -999.0      -999.0      -999.0      -999.0      -999.0      -999.0      -999.0      -999.0      -999.0    
       -999.0      -999.0      -999.0      -999.0      -999.0      -999.0      -999.0      -999.0      -999.0      -999.0    
       -999.0      -999.0      -999.0      -999.0      -999.0      -999.0      -999.0      -999.0      -999.0      -999.0    
       -999.0      -999.0      -999.0      -999.0      -999.0      -999.0      -999.0      -999.0      -999.0      -999.0    
       -999.0      -999.0      -999.0      -999.0      -999.0      -999.0      -999.0      -999.0      -999.0      -999.0    
       -999.0      -999.0      -999.0      -999.0      -999.0      -999.0      -999.0      -999.0      -999.0      -999.0    
   5   -999.0      -999.0      -999.0      -999.0      -999.0      -999.0      -999.0      -999.0      -999.0      -999.0    
       -999.0      -999.0      -999.0      -999.0      -999.0      -999.0      -999.0      -999.0      -999.0      -999.0    
       -999.0      -999.0      -999.0      -999.0      -999.0      -999.0      -999.0      -999.0      -999.0      -999.0    
       -999.0      -999.0      -999.0      -999.0      -999.0      -999.0      -999.0      -999.0      -999.0      -999.0    
       -999.0      -999.0      -999.0      -999.0      -999.0      -999.0      -999.0      -999.0      -999.0      -999.0    
       -999.0      -999.0      -999.0      -999.0      -999.0      -999.0      -999.0      -999.0      -999.0      -999.0    
       -999.0      -999.0      -999.0      -999.0      -999.0      -999.0      -999.0      -999.0      -999.0      -999.0    
       -999.0      -999.0      -999.0      -999.0      -999.0      -999.0      -999.0      -999.0      -999.0      -999.0    
       -999.0      -999.0      -999.0      -999.0      -999.0      -999.0      -999.0      -999.0      -999.0      -999.0    
       -999.0      -999.0      -999.0      -999.0      -999.0      -999.0      -999.0      -999.0      -999.0      -999.0    
   6   -999.0      -999.0      -999.0      -999.0      -999.0      -999.0      -999.0      -999.0      -999.0      -999.0    
       -999.0      -999.0      -999.0      -999.0      -999.0      -999.0      -999.0      -999.0      -999.0      -999.0    
       -999.0      -999.0      -999.0      -999.0      -999.0      -999.0      -999.0      -999.0      -999.0      -999.0    
       -999.0      -999.0      -999.0      -999.0      -999.0      -999.0      -999.0      -999.0      -999.0      -999.0    
       -999.0      -999.0      -999.0      -999.0      -999.0      -999.0      -999.0      -999.0      -999.0      -999.0    
       -999.0      -999.0      -999.0      -999.0      -999.0      -999.0      -999.0      -999.0      -999.0      -999.0    
       -999.0      -999.0      -999.0      -999.0      -999.0      -999.0      -999.0      -999.0      -999.0      -999.0    
       -999.0      -999.0      -999.0      -999.0      -999.0      -999.0      -999.0      -999.0      -999.0      -999.0    
       -999.0      -999.0      -999.0      -999.0      -999.0      -999.0      -999.0      -999.0      -999.0      -999.0    
       -999.0      -999.0      -999.0      -999.0      -999.0      -999.0      -999.0      -999.0      -999.0      -999.0    
   7   -999.0      -999.0      -999.0      -999.0      -999.0      -999.0      -999.0      -999.0      -999.0      -999.0    
       -999.0      -999.0      -999.0      -999.0      -999.0      -999.0      -999.0      -999.0      -999.0      -999.0    
       -999.0      -999.0      -999.0      -999.0      -999.0      -999.0      -999.0      -999.0      -999.0      -999.0    
       -999.0      -999.0      -999.0      -999.0      -999.0      -999.0      -999.0      -999.0      -999.0      -999.0    
       -999.0      -999.0      -999.0      -999.0      -999.0      -999.0      -999.0      -999.0      -999.0      -999.0    
       -999.0      -999.0      -999.0      -999.0      -999.0      -999.0      -999.0      -999.0      -999.0      -999.0    
       -999.0      -999.0      -999.0      -999.0      -999.0      -999.0      -999.0      -999.0      -999.0      -999.0    
       -999.0      -999.0      -999.0      -999.0      -999.0      -999.0      -999.0      -999.0      -999.0      -999.0    
       -999.0      -999.0      -999.0      -999.0      -999.0      -999.0      -999.0      -999.0      -999.0      -999.0    
       -999.0      -999.0      -999.0      -999.0      -999.0      -999.0      -999.0      -999.0      -999.0      -999.0    
   8   -999.0      -999.0      -999.0      -999.0      -999.0      -999.0      -999.0      -999.0      -999.0      -999.0    
       -999.0      -999.0      -999.0      -999.0      -999.0      -999.0      -999.0      -999.0      -999.0      -999.0    
       -999.0      -999.0      -999.0      -999.0      -999.0      -999.0      -999.0      -999.0      -999.0      -999.0    
       -999.0      -999.0      -999.0      -999.0      -999.0      -999.0      -999.0      -999.0      -999.0      -999.0    
       -999.0      -999.0      -999.0      -999.0      -999.0      -999.0      -999.0      -999.0      -999.0      -999.0    
       -999.0      -999.0      -999.0      -999.0      -999.0      -999.0      -999.0      -999.0      -999.0      -999.0    
       -999.0      -999.0      -999.0      -999.0      -999.0      -999.0      -999.0      -999.0      -999.0      -999.0    
       -999.0      -999.0      -999.0      -999.0      -999.0      -999.0      -999.0      -999.0      -999.0      -999.0    
       -999.0      -999.0      -999.0      -999.0      -999.0      -999.0      -999.0      -999.0      -999.0      -999.0    
       -999.0      -999.0      -999.0      -999.0      -999.0      -999.0      -999.0      -999.0      -999.0      -999.0    
   9   -999.0      -999.0      -999.0      -999.0      -999.0      -999.0      -999.0      -999.0      -999.0      -999.0    
       -999.0      -999.0      -999.0      -999.0      -999.0      -999.0      -999.0      -999.0      -999.0      -999.0    
       -999.0      -999.0      -999.0      -999.0      -999.0      -999.0      -999.0      -999.0      -999.0      -999.0    
       -999.0      -999.0      -999.0      -999.0      -999.0      -999.0      -999.0      -999.0      -999.0      -999.0    
       -999.0      -999.0      -999.0      -999.0      -999.0      -999.0      -999.0      -999.0      -999.0      -999.0    
       -999.0      -999.0      -999.0      -999.0      -999.0      -999.0      -999.0      -999.0      -999.0      -999.0    
       -999.0      -999.0      -999.0      -999.0      -999.0      -999.0      -999.0      -999.0      -999.0      -999.0    
       -999.0      -999.0      -999.0      -999.0      -999.0      -999.0      -999.0      -999.0      -999.0      -999.0    
       -999.0      -999.0      -999.0      -999.0      -999.0      -999.0      -999.0      -999.0      -999.0      -999.0    
       -999.0      -999.0      -999.0      -999.0      -999.0      -999.0      -999.0      -999.0      -999.0      -999.0    
  10   -999.0      -999.0      -999.0      -999.0      -999.0      -999.0      -999.0      -999.0      -999.0      -999.0    
       -999.0      -999.0      -999.0      -999.0      -999.0      -999.0      -999.0      -999.0      -999.0      -999.0    
       -999.0      -999.0      -999.0      -999.0      -999.0      -999.0      -999.0      -999.0      -999.0      -999.0    
       -999.0      -999.0      -999.0      -999.0      -999.0      -999.0      -999.0      -999.0      -999.0      -999.0    
       -999.0      -999.0      -999.0      -999.0      -999.0      -999.0      -999.0      -999.0      -999.0      -999.0    
       -999.0      -999.0      -999.0      -999.0      -999.0      -999.0      -999.0      -999.0      -999.0      -999.0    
       -999.0      -999.0      -999.0      -999.0      -999.0      -999.0      -999.0      -999.0      -999.0      -999.0    
       -999.0      -999.0      -999.0      -999.0      -999.0      -999.0      -999.0      -999.0      -999.0      -999.0    
       -999.0      -999.0      -999.0      -999.0      -999.0      -999.0      -999.0      -999.0      -999.0      -999.0    
       -999.0      -999.0      -999.0      -999.0      -999.0      -999.0      -999.0      -999.0      -999.0      -999.0    
  11   -999.0      -999.0      -999.0      -999.0      -999.0      -999.0      -999.0      -999.0      -999.0      -999.0    
       -999.0      -999.0      -999.0      -999.0      -999.0      -999.0      -999.0      -999.0      -999.0      -999.0    
       -999.0      -999.0      -999.0      -999.0      -999.0      -999.0      -999.0      -999.0      -999.0      -999.0    
       -999.0      -999.0      -999.0      -999.0      -999.0      -999.0      -999.0      -999.0      -999.0      -999.0    
       -999.0      -999.0      -999.0      -999.0      -999.0      -999.0      -999.0      -999.0      -999.0      -999.0    
       -999.0      -999.0      -999.0      -999.0      -999.0      -999.0      -999.0      -999.0      -999.0      1.0000    
       1.0000      -999.0      -999.0      -999.0      -999.0      -999.0      -999.0      -999.0      -999.0      -999.0    
       -999.0      -999.0      -999.0      -999.0      -999.0      -999.0      -999.0      -999.0      -999.0      -999.0    
       -999.0      -999.0      -999.0      -999.0      -999.0      -999.0      -999.0      -999.0      -999.0      -999.0    
       -999.0      -999.0      -999.0      -999.0      -999.0      -999.0      -999.0      -999.0      -999.0      -999.0    
  12   -999.0      -999.0      -999.0      -999.0      -999.0      -999.0      -999.0      -999.0      -999.0      -999.0    
       -999.0      -999.0      -999.0      -999.0      -999.0      -999.0      -999.0      -999.0      -999.0      -999.0    
       -999.0      -999.0      -999.0      -999.0      -999.0      -999.0      -999.0      -999.0      -999.0      -999.0    
       -999.0      -999.0      -999.0      -999.0      -999.0      -999.0      -999.0      -999.0      -999.0      -999.0    
       -999.0      -999.0      -999.0      -999.0      -999.0      -999.0      -999.0      -999.0      -999.0      -999.0    
       -999.0      -999.0      -999.0      -999.0      -999.0      -999.0      -999.0      -999.0      1.0000      1.0000    
       1.0000      -999.0      -999.0      -999.0      -999.0      -999.0      -999.0      -999.0      -999.0      -999.0    
       -999.0      -999.0      -999.0      -999.0      -999.0      -999.0      -999.0      -999.0      -999.0      -999.0    
       -999.0      -999.0      -999.0      -999.0      -999.0      -999.0      -999.0      -999.0      -999.0      -999.0    
       -999.0      -999.0      -999.0      -999.0      -999.0      -999.0      -999.0      -999.0      -999.0      -999.0    
  13   -999.0      -999.0      -999.0      -999.0      -999.0      -999.0      -999.0      -999.0      -999.0      -999.0    
       -999.0      -999.0      -999.0      -999.0      -999.0      -999.0      -999.0      -999.0      -999.0      -999.0    
       -999.0      -999.0      -999.0      -999.0      -999.0      -999.0      -999.0      -999.0      -999.0      -999.0    
       -999.0      -999.0      -999.0      -999.0      -999.0      -999.0      -999.0      -999.0      -999.0      -999.0    
       -999.0      -999.0      -999.0      -999.0      -999.0      -999.0      -999.0      -999.0      -999.0      -999.0    
       -999.0      -999.0      -999.0      -999.0      -999.0      -999.0      -999.0      -999.0      1.0000       1.004    
       1.0000      -999.0      -999.0      -999.0      -999.0      -999.0      -999.0      -999.0      -999.0      -999.0    
       -999.0      -999.0      -999.0      -999.0      -999.0      -999.0      -999.0      -999.0      -999.0      -999.0    
       -999.0      -999.0      -999.0      -999.0      -999.0      -999.0      -999.0      -999.0      -999.0      -999.0    
       -999.0      -999.0      -999.0      -999.0      -999.0      -999.0      -999.0      -999.0      -999.0      -999.0    
  14   -999.0      -999.0      -999.0      -999.0      -999.0      -999.0      -999.0      -999.0      -999.0      -999.0    
       -999.0      -999.0      -999.0      -999.0      -999.0      -999.0      -999.0      -999.0      -999.0      -999.0    
       -999.0      -999.0      -999.0      -999.0      -999.0      -999.0      -999.0      -999.0      -999.0      -999.0    
       -999.0      -999.0      -999.0      -999.0      -999.0      -999.0      -999.0      -999.0      -999.0      -999.0    
       -999.0      -999.0      -999.0      -999.0      -999.0      -999.0      -999.0      -999.0      -999.0      -999.0    
       -999.0      -999.0      -999.0      -999.0      -999.0      -999.0      1.0000      1.0000      1.0000      1.0000    
       1.0000      -999.0      -999.0      -999.0      -999.0      -999.0      -999.0      -999.0      -999.0      -999.0    
       -999.0      -999.0      -999.0      -999.0      -999.0      -999.0      -999.0      -999.0      -999.0      -999.0    
       -999.0      -999.0      -999.0      -999.0      -999.0      -999.0      -999.0      -999.0      -999.0      -999.0    
       -999.0      -999.0      -999.0      -999.0      -999.0      -999.0      -999.0      -999.0      -999.0      -999.0    
  15   -999.0      -999.0      -999.0      -999.0      -999.0      -999.0      -999.0      -999.0      -999.0      -999.0    
       -999.0      -999.0      -999.0      -999.0      -999.0      -999.0      -999.0      -999.0      -999.0      -999.0    
       -999.0      -999.0      -999.0      -999.0      -999.0      -999.0      -999.0      -999.0      -999.0      -999.0    
       -999.0      -999.0      -999.0      -999.0      -999.0      -999.0      -999.0      -999.0      -999.0      -999.0    
       -999.0      -999.0      -999.0      -999.0      -999.0      -999.0      -999.0      -999.0      -999.0      -999.0    
       -999.0      -999.0      -999.0      -999.0      -999.0      -999.0      1.0000      1.0000       1.015      1.0000    
       -999.0      -999.0      -999.0      1.0000      -999.0      -999.0      -999.0      -999.0      -999.0      -999.0    
       -999.0      -999.0      -999.0      -999.0      -999.0      -999.0      -999.0      -999.0      -999.0      -999.0    
       -999.0      -999.0      -999.0      -999.0      -999.0      -999.0      -999.0      -999.0      -999.0      -999.0    
       -999.0      -999.0      -999.0      -999.0      1.0000      1.0000      -999.0      -999.0      -999.0      -999.0    
  16   -999.0      -999.0      -999.0      -999.0      -999.0      -999.0      -999.0      -999.0      -999.0      -999.0    
       -999.0      -999.0      -999.0      -999.0      -999.0      -999.0      -999.0      -999.0      -999.0      -999.0    
       -999.0      -999.0      -999.0      -999.0      -999.0      -999.0      -999.0      -999.0      -999.0      -999.0    
       -999.0      -999.0      -999.0      -999.0      -999.0      -999.0      -999.0      -999.0      -999.0      -999.0    
       -999.0      -999.0      -999.0      -999.0      -999.0      -999.0      -999.0      -999.0      -999.0      -999.0    
       -999.0      -999.0      -999.0      -999.0      1.0000      1.0000      1.0000       1.064      1.0000      1.0000    
       -999.0      1.0000      1.0000      1.0000      -999.0      -999.0      -999.0      -999.0      -999.0      -999.0    
       1.0000      1.0000      1.0000      -999.0      -999.0      -999.0      -999.0      -999.0      -999.0      -999.0    
       -999.0      -999.0      -999.0      -999.0      -999.0      -999.0      -999.0      -999.0      -999.0      -999.0    
       1.0000      -999.0      -999.0      1.0000      1.0000      1.0000      -999.0      -999.0      -999.0      -999.0    
  17   -999.0      -999.0      -999.0      -999.0      -999.0      -999.0      -999.0      -999.0      -999.0      -999.0    
       -999.0      -999.0      -999.0      -999.0      -999.0      -999.0      -999.0      -999.0      -999.0      -999.0    
       -999.0      -999.0      -999.0      -999.0      -999.0      -999.0      -999.0      -999.0      -999.0      -999.0    
       -999.0      -999.0      -999.0      -999.0      -999.0      -999.0      -999.0      -999.0      -999.0      -999.0    
       -999.0      -999.0      -999.0      -999.0      -999.0      -999.0      -999.0      -999.0      -999.0      -999.0    
       -999.0      -999.0      -999.0      -999.0      1.0000      1.0000      1.0000       1.122      1.0000      -999.0    
       1.0000      1.0000      1.0000      1.0000      -999.0      1.0000      1.0000      -999.0      1.0000      -999.0    
       1.0000      1.0000      1.0000      1.0000      1.0000      -999.0      -999.0      -999.0      -999.0      -999.0    
       -999.0      -999.0      -999.0      -999.0      -999.0      -999.0      -999.0      -999.0      -999.0      1.0000    
       1.0000      1.0000      1.0000      1.0000      1.0000      -999.0      -999.0      -999.0      -999.0      -999.0    
  18   -999.0      -999.0      -999.0      -999.0      -999.0      -999.0      -999.0      -999.0      -999.0      -999.0    
       -999.0      -999.0      -999.0      -999.0      -999.0      -999.0      -999.0      -999.0      -999.0      -999.0    
       -999.0      -999.0      -999.0      -999.0      -999.0      -999.0      -999.0      -999.0      -999.0      -999.0    
       -999.0      -999.0      -999.0      -999.0      -999.0      -999.0      -999.0      -999.0      -999.0      -999.0    
       -999.0      -999.0      -999.0      -999.0      -999.0      -999.0      -999.0      -999.0      -999.0      -999.0    
       -999.0      -999.0      -999.0      -999.0      1.0000       1.116       1.169       1.207      1.0000      1.0000    
       1.0000       1.081       1.087      1.0000      1.0000      1.0000      1.0000      -999.0      1.0000      1.0000    
       1.0000      1.0000      1.0000      1.0000      1.0000      -999.0      -999.0      -999.0      -999.0      -999.0    
       -999.0      -999.0      -999.0      -999.0      -999.0      -999.0      -999.0      -999.0      -999.0      1.0000    
        1.027       1.014      0.9634      0.9014      1.0000      -999.0      -999.0      -999.0      -999.0      -999.0    
  19   -999.0      -999.0      -999.0      -999.0      -999.0      -999.0      -999.0      -999.0      -999.0      -999.0    
       -999.0      -999.0      -999.0      -999.0      -999.0      -999.0      -999.0      -999.0      -999.0      -999.0    
       -999.0      -999.0      -999.0      -999.0      -999.0      -999.0      -999.0      -999.0      -999.0      -999.0    
       -999.0      -999.0      -999.0      -999.0      -999.0      -999.0      -999.0      -999.0      -999.0      -999.0    
       -999.0      -999.0      -999.0      -999.0      -999.0      -999.0      -999.0      -999.0      -999.0      -999.0    
       -999.0      -999.0      1.0000      1.0000      1.0000       1.208       1.301       1.319       1.184      1.0000    
       1.0000       1.144       1.161      1.0000      1.0000      1.0000      1.0000      -999.0      1.0000      1.0000    
       1.0000       1.040      1.0000      1.0000      1.0000      -999.0      -999.0      -999.0      1.0000      -999.0    
       -999.0      -999.0      -999.0      -999.0      -999.0      -999.0      -999.0      1.0000      1.0000      1.0000    
        1.050       1.022      0.9150      0.7437      1.0000      -999.0      -999.0      -999.0      -999.0      -999.0    
  20   -999.0      -999.0      -999.0      -999.0      -999.0      -999.0      -999.0      -999.0      -999.0      -999.0    
       -999.0      -999.0      -999.0      -999.0      -999.0      -999.0      -999.0      -999.0      -999.0      -999.0    
       -999.0      -999.0      -999.0      -999.0      -999.0      -999.0      -999.0      -999.0      -999.0      -999.0    
       -999.0      -999.0      -999.0      -999.0      -999.0      -999.0      -999.0      -999.0      -999.0      -999.0    
       -999.0      -999.0      -999.0      -999.0      -999.0      -999.0      -999.0      -999.0      -999.0      -999.0    
       1.0000      1.0000      1.0000      1.0000      1.0000       1.292       1.414       1.433       1.343       1.213    
        1.145       1.204       1.246       1.137      1.0000      1.0000      -999.0      -999.0      1.0000      1.0000    
       1.0000       1.075       1.018      1.0000      1.0000      -999.0      -999.0      -999.0      1.0000      -999.0    
       -999.0      1.0000      -999.0      -999.0      -999.0      -999.0      -999.0      1.0000       1.038       1.058    
        1.079       1.037      0.8686      0.8715      1.0000      -999.0      -999.0      -999.0      -999.0      -999.0    
  21   -999.0      -999.0      -999.0      -999.0      -999.0      -999.0      -999.0      -999.0      -999.0      -999.0    
       -999.0      -999.0      -999.0      -999.0      -999.0      -999.0      -999.0      -999.0      -999.0      -999.0    
       -999.0      -999.0      -999.0      -999.0      -999.0      -999.0      -999.0      -999.0      -999.0      -999.0    
       -999.0      -999.0      -999.0      -999.0      -999.0      -999.0      -999.0      -999.0      -999.0      -999.0    
       -999.0      -999.0      -999.0      -999.0      -999.0      -999.0      -999.0      -999.0      -999.0      -999.0    
       1.0000      1.0000       1.113      1.0000      1.0000       1.381       1.514       1.537       1.475       1.371    
        1.217       1.232       1.334       1.254       1.124      1.0000      -999.0      1.0000      1.0000       1.108    
        1.126       1.119      1.0000      1.0000      -999.0      -999.0      1.0000      1.0000      1.0000      1.0000    
       1.0000      1.0000      1.0000      1.0000      -999.0      -999.0      -999.0      1.0000       1.066       1.099    
        1.111       1.070      0.9686      0.9501      1.0000      -999.0      -999.0      -999.0      -999.0      -999.0    
  22   -999.0      -999.0      -999.0      -999.0      -999.0      -999.0      -999.0      -999.0      -999.0      -999.0    
       -999.0      -999.0      -999.0      -999.0      -999.0      -999.0      -999.0      -999.0      -999.0      -999.0    
       -999.0      -999.0      -999.0      -999.0      -999.0      -999.0      -999.0      -999.0      -999.0      -999.0    
       -999.0      -999.0      -999.0      -999.0      -999.0      -999.0      -999.0      -999.0      -999.0      -999.0    
       -999.0      -999.0      -999.0      -999.0      -999.0      -999.0      -999.0      -999.0      -999.0      1.0000    
       1.0000       1.133       1.247       1.239       1.283       1.499       1.603       1.624       1.580       1.505    
        1.414       1.407       1.434       1.356       1.219      1.0000      1.0000      1.0000      1.0000       1.212    
        1.232       1.168      1.0000      1.0000      -999.0      1.0000      1.0000       1.068       1.071      1.0000    
       1.0000      1.0000      1.0000      1.0000      1.0000      -999.0      -999.0      1.0000       1.086       1.131    
        1.141       1.105       1.031      0.9946      1.0000      1.0000      -999.0      -999.0      -999.0      -999.0    
  23   -999.0      -999.0      -999.0      -999.0      -999.0      -999.0      -999.0      -999.0      -999.0      -999.0    
       -999.0      -999.0      -999.0      -999.0      -999.0      -999.0      -999.0      -999.0      -999.0      -999.0    
       -999.0      -999.0      -999.0      -999.0      -999.0      -999.0      -999.0      -999.0      -999.0      -999.0    
       -999.0      -999.0      -999.0      -999.0      -999.0      -999.0      -999.0      -999.0      -999.0      -999.0    
       -999.0      -999.0      -999.0      -999.0      -999.0      -999.0      -999.0      -999.0      -999.0      1.0000    
       1.0000       1.234       1.375       1.422       1.480       1.606       1.676       1.689       1.657       1.607    
        1.551       1.535       1.526       1.445       1.309      1.0000      1.0000       1.176       1.232       1.343    
        1.334       1.218       1.143      1.0000      1.0000      1.0000      1.0000       1.128       1.137       1.085    
       1.0000      1.0000       1.062       1.066      1.0000      1.0000      -999.0      1.0000       1.103       1.157    
        1.168       1.134       1.067       1.013       1.012      1.0000      -999.0      -999.0      -999.0      -999.0    
  24   -999.0      -999.0      -999.0      -999.0      -999.0      -999.0      -999.0      -999.0      -999.0      -999.0    
       -999.0      -999.0      -999.0      -999.0      -999.0      -999.0      -999.0      -999.0      -999.0      -999.0    
       -999.0      -999.0      -999.0      -999.0      -999.0      -999.0      -999.0      -999.0      -999.0      -999.0    
       -999.0      -999.0      -999.0      -999.0      -999.0      -999.0      -999.0      -999.0      -999.0      -999.0    
       -999.0      -999.0      -999.0      -999.0      -999.0      -999.0      -999.0      -999.0      -999.0      1.0000    
       1.0000       1.323       1.489       1.563       1.618       1.688       1.724       1.727       1.701       1.671    
        1.640       1.623       1.600       1.521       1.417       1.253       1.250       1.356       1.421       1.480    
        1.440       1.230       1.279       1.206       1.177       1.155       1.146       1.194       1.193       1.154    
        1.087      1.0000       1.122       1.133       1.076      1.0000      -999.0      1.0000       1.118       1.180    
        1.192       1.158       1.084       1.001       1.011      1.0000      -999.0      -999.0      -999.0      -999.0    
  25   -999.0      -999.0      -999.0      -999.0      -999.0      -999.0      -999.0      -999.0      -999.0      -999.0    
       -999.0      -999.0      -999.0      -999.0      -999.0      -999.0      -999.0      -999.0      -999.0      -999.0    
       -999.0      -999.0      -999.0      -999.0      -999.0      -999.0      -999.0      -999.0      -999.0      -999.0    
       -999.0      -999.0      -999.0      -999.0      -999.0      -999.0      -999.0      -999.0      -999.0      -999.0    
       -999.0      -999.0      -999.0      -999.0      -999.0      -999.0      1.0000      1.0000      1.0000      1.0000    
        1.179       1.418       1.587       1.669       1.713       1.739       1.741       1.731       1.709       1.699    
        1.687       1.675       1.651       1.577       1.514       1.434       1.438       1.519       1.583       1.618    
        1.565       1.353       1.422       1.373       1.325       1.282       1.250       1.248       1.234       1.204    
        1.161       1.131       1.193       1.199       1.137      1.0000      1.0000      1.0000       1.133       1.201    
        1.213       1.176       1.089      0.9476      1.0000      1.0000      -999.0      -999.0      -999.0      -999.0    
  26   -999.0      -999.0      -999.0      -999.0      -999.0      -999.0      -999.0      -999.0      -999.0      -999.0    
       -999.0      -999.0      -999.0      -999.0      -999.0      -999.0      -999.0      -999.0      -999.0      -999.0    
       -999.0      -999.0      -999.0      -999.0      -999.0      -999.0      -999.0      -999.0      -999.0      -999.0    
       -999.0      -999.0      -999.0      -999.0      -999.0      -999.0      -999.0      -999.0      -999.0      -999.0    
       -999.0      -999.0      -999.0      -999.0      -999.0      -999.0      1.0000      1.0000      1.0000      1.0000    
        1.289       1.481       1.636       1.711       1.737       1.723       1.686       1.666       1.649       1.664    
        1.670       1.668       1.651       1.591       1.576       1.554       1.566       1.648       1.714       1.740    
        1.693       1.569       1.556       1.500       1.433       1.366       1.307       1.266       1.241       1.219    
        1.201       1.206       1.250       1.254       1.190      1.0000      1.0000      0.9997       1.139       1.212    
        1.223       1.184       1.084      0.8172      1.0000      -999.0      -999.0      -999.0      -999.0      -999.0    
  27   -999.0      -999.0      -999.0      -999.0      -999.0      -999.0      -999.0      -999.0      -999.0      -999.0    
       -999.0      -999.0      -999.0      -999.0      -999.0      -999.0      -999.0      -999.0      -999.0      -999.0    
       -999.0      -999.0      -999.0      -999.0      -999.0      -999.0      -999.0      -999.0      -999.0      -999.0    
       -999.0      -999.0      -999.0      -999.0      -999.0      -999.0      -999.0      -999.0      -999.0      -999.0    
       -999.0      -999.0      -999.0      -999.0      -999.0      -999.0      1.0000      1.0000       1.170       1.220    
        1.374       1.504       1.631       1.692       1.699       1.638       1.554       1.525       1.517       1.567    
        1.591       1.600       1.599       1.554       1.602       1.626       1.638       1.743       1.818       1.841    
        1.802       1.713       1.662       1.589       1.501       1.409       1.320       1.241       1.207       1.194    
        1.205       1.241       1.288       1.298       1.246       1.122       1.064      0.9358       1.137       1.213    
        1.222       1.183       1.099      0.9562      1.0000      -999.0      -999.0      -999.0      -999.0      -999.0    
  28   -999.0      -999.0      -999.0      -999.0      -999.0      -999.0      -999.0      -999.0      -999.0      -999.0    
       -999.0      -999.0      -999.0      -999.0      -999.0      -999.0      -999.0      -999.0      -999.0      -999.0    
       -999.0      -999.0      -999.0      -999.0      -999.0      -999.0      -999.0      -999.0      -999.0      -999.0    
       -999.0      -999.0      -999.0      -999.0      -999.0      -999.0      -999.0      -999.0      -999.0      -999.0    
       -999.0      -999.0      -999.0      -999.0      -999.0      1.0000      1.0000       1.194       1.321       1.360    
        1.416       1.478       1.571       1.615       1.604       1.486       1.331       1.303       1.305       1.414    
        1.452       1.470       1.496       1.454       1.597       1.663       1.645       1.809       1.897       1.920    
        1.884       1.808       1.735       1.642       1.531       1.411       1.292       1.163       1.127       1.124    
        1.172       1.244       1.307       1.328       1.292       1.202       1.122      0.9648       1.144       1.208    
        1.209       1.171       1.106       1.020      1.0000      -999.0      -999.0      -999.0      -999.0      -999.0    
  29   -999.0      -999.0      -999.0      -999.0      -999.0      -999.0      -999.0      -999.0      -999.0      -999.0    
       -999.0      -999.0      -999.0      -999.0      -999.0      -999.0      -999.0      -999.0      -999.0      -999.0    
       -999.0      -999.0      -999.0      -999.0      -999.0      -999.0      -999.0      -999.0      -999.0      -999.0    
       -999.0      -999.0      -999.0      -999.0      -999.0      -999.0      -999.0      -999.0      -999.0      -999.0    
       -999.0      -999.0      -999.0      -999.0      -999.0      1.0000       1.170       1.354       1.447       1.446    
        1.407       1.393       1.449       1.477       1.465       1.270      1.0000      1.0000      1.0000       1.215    
        1.255       1.274       1.347       1.264       1.574       1.684       1.564       1.857       1.955       1.975    
        1.936       1.861       1.772       1.660       1.524       1.374       1.226       1.022      1.0000      1.0000    
        1.103       1.218       1.307       1.344       1.323       1.252       1.175       1.085       1.157       1.193    
        1.182       1.140       1.094       1.040      1.0000      -999.0      -999.0      -999.0      -999.0      -999.0    
  30   -999.0      -999.0      -999.0      -999.0      -999.0      -999.0      -999.0      -999.0      -999.0      -999.0    
       -999.0      -999.0      -999.0      -999.0      -999.0      -999.0      -999.0      -999.0      -999.0      -999.0    
       -999.0      -999.0      -999.0      -999.0      -999.0      -999.0      -999.0      -999.0      -999.0      -999.0    
       -999.0      -999.0      -999.0      -999.0      -999.0      -999.0      -999.0      -999.0      -999.0      -999.0    
       -999.0      -999.0      -999.0      -999.0      -999.0      1.0000       1.296       1.490       1.548       1.492    
        1.340       1.239       1.261       1.277       1.301      1.0000      1.0000      1.0000      1.0000      1.0000    
       1.0000      1.0000       1.176       1.138       1.567       1.730       1.749       1.919       1.997       2.005    
        1.959       1.879       1.776       1.645       1.482       1.298       1.136      1.0000      1.0000      1.0000    
       1.0000       1.171       1.291       1.346       1.338       1.279       1.205       1.135       1.155       1.166    
        1.139       1.086       1.059       1.032      1.0000      -999.0      -999.0      -999.0      -999.0      -999.0    
  31   -999.0      -999.0      -999.0      -999.0      -999.0      -999.0      -999.0      -999.0      -999.0      -999.0    
       -999.0      -999.0      -999.0      -999.0      -999.0      -999.0      -999.0      -999.0      -999.0      -999.0    
       -999.0      -999.0      -999.0      -999.0      -999.0      -999.0      -999.0      -999.0      -999.0      -999.0    
       -999.0      -999.0      -999.0      -999.0      -999.0      -999.0      -999.0      -999.0      -999.0      -999.0    
       -999.0      -999.0      -999.0      -999.0      1.0000      1.0000       1.413       1.611       1.629       1.515    
        1.208      1.0000      1.0000      1.0000       1.150      1.0000      -999.0      -999.0      -999.0      -999.0    
       1.0000      1.0000      1.0000       1.261       1.595       1.776       1.855       1.967       2.019       2.010    
        1.951       1.862       1.748       1.599       1.406       1.176      1.0000      1.0000      -999.0      1.0000    
       1.0000       1.107       1.263       1.335       1.337       1.284       1.209       1.135       1.129       1.124    
        1.077      1.0000      1.0000      1.0000      1.0000      -999.0      -999.0      -999.0      -999.0      -999.0    
  32   -999.0      -999.0      -999.0      -999.0      -999.0      -999.0      -999.0      -999.0      -999.0      -999.0    
       -999.0      -999.0      -999.0      -999.0      -999.0      -999.0      -999.0      -999.0      -999.0      -999.0    
       -999.0      -999.0      -999.0      -999.0      -999.0      -999.0      -999.0      -999.0      -999.0      -999.0    
       -999.0      -999.0      -999.0      -999.0      -999.0      -999.0      -999.0      -999.0      -999.0      -999.0    
       -999.0      -999.0      -999.0      1.0000      1.0000       1.228       1.554       1.732       1.696       1.539    
       1.0000      1.0000      -999.0      1.0000      1.0000      1.0000      -999.0      -999.0      -999.0      -999.0    
       -999.0      -999.0      1.0000       1.327       1.625       1.813       1.913       1.994       2.020       1.989    
        1.911       1.812       1.689       1.524       1.302      1.0000      1.0000      -999.0      -999.0      -999.0    
       1.0000      1.0000       1.228       1.314       1.321       1.270       1.187       1.092       1.078       1.067    
       1.0000      1.0000      1.0000      1.0000      -999.0      -999.0      -999.0      -999.0      -999.0      -999.0    
  33   -999.0      -999.0      -999.0      -999.0      -999.0      -999.0      -999.0      -999.0      -999.0      -999.0    
       -999.0      -999.0      -999.0      -999.0      -999.0      -999.0      -999.0      -999.0      -999.0      -999.0    
       -999.0      -999.0      -999.0      -999.0      -999.0      -999.0      -999.0      -999.0      -999.0      -999.0    
       -999.0      -999.0      -999.0      -999.0      -999.0      -999.0      -999.0      -999.0      -999.0      -999.0    
       -999.0      -999.0      -999.0      1.0000      1.0000       1.393       1.698       1.861       1.745       1.616    
       1.0000      1.0000      1.0000      1.0000      -999.0      -999.0      -999.0      -999.0      -999.0      -999.0    
       -999.0      -999.0      1.0000       1.362       1.647       1.834       1.939       1.997       1.998       1.940    
        1.837       1.729       1.601       1.424       1.180      1.0000      -999.0      -999.0      -999.0      -999.0    
       -999.0      1.0000       1.201       1.285       1.291       1.238       1.143      1.0000      1.0000      1.0000    
       1.0000      -999.0      -999.0      -999.0      -999.0      -999.0      -999.0      -999.0      -999.0      -999.0    
  34   -999.0      -999.0      -999.0      -999.0      -999.0      -999.0      -999.0      -999.0      -999.0      -999.0    
       -999.0      -999.0      -999.0      -999.0      -999.0      -999.0      -999.0      -999.0      -999.0      -999.0    
       -999.0      -999.0      -999.0      -999.0      -999.0      -999.0      -999.0      -999.0      -999.0      -999.0    
       -999.0      -999.0      -999.0      -999.0      -999.0      -999.0      -999.0      -999.0      -999.0      -999.0    
       -999.0      -999.0      -999.0      1.0000       1.193       1.545       1.845       2.015       1.956       1.776    
        1.466       1.331      1.0000      1.0000      -999.0      -999.0      1.0000      -999.0      -999.0      -999.0    
       -999.0      1.0000      1.0000       1.380       1.658       1.839       1.939       1.978       1.953       1.863    
        1.724       1.610       1.487       1.303      1.0000      1.0000      -999.0      -999.0      -999.0      -999.0    
       -999.0      1.0000       1.175       1.248       1.246       1.192       1.087      1.0000      -999.0      1.0000    
       1.0000      -999.0      -999.0      -999.0      -999.0      -999.0      -999.0      -999.0      -999.0      -999.0    
  35   -999.0      -999.0      -999.0      -999.0      -999.0      -999.0      -999.0      -999.0      -999.0      -999.0    
       -999.0      -999.0      -999.0      -999.0      -999.0      -999.0      -999.0      -999.0      -999.0      -999.0    
       -999.0      -999.0      -999.0      -999.0      -999.0      -999.0      -999.0      -999.0      -999.0      -999.0    
       -999.0      -999.0      -999.0      -999.0      -999.0      -999.0      -999.0      -999.0      -999.0      -999.0    
       -999.0      -999.0      -999.0      1.0000       1.307       1.676       1.992       2.181       2.150       1.920    
        1.834       1.663       1.339      1.0000      1.0000      1.0000      1.0000      1.0000      -999.0      -999.0    
       -999.0      -999.0      1.0000       1.387       1.656       1.827       1.917       1.938       1.888       1.760    
        1.564       1.455       1.348       1.175      1.0000      -999.0      -999.0      -999.0      -999.0      -999.0    
       -999.0      1.0000       1.147       1.201       1.186       1.135      1.0000      1.0000      -999.0      -999.0    
       -999.0      -999.0      -999.0      -999.0      -999.0      -999.0      -999.0      -999.0      -999.0      -999.0    
  36   -999.0      -999.0      -999.0      -999.0      -999.0      -999.0      -999.0      -999.0      -999.0      -999.0    
       -999.0      -999.0      -999.0      -999.0      -999.0      -999.0      -999.0      -999.0      -999.0      -999.0    
       -999.0      -999.0      -999.0      -999.0      -999.0      -999.0      -999.0      -999.0      -999.0      -999.0    
       -999.0      -999.0      -999.0      -999.0      -999.0      -999.0      -999.0      -999.0      -999.0      -999.0    
       -999.0      -999.0      -999.0      1.0000       1.359       1.778       2.130       2.342       2.333       2.170    
        2.161       1.973       1.620       1.417       1.326       1.200      1.0000      -999.0      -999.0      -999.0    
       -999.0      -999.0      1.0000       1.381       1.637       1.793       1.868       1.872       1.798       1.629    
        1.334       1.252       1.182      1.0000      1.0000      -999.0      -999.0      -999.0      -999.0      -999.0    
       -999.0      1.0000       1.117       1.144       1.108       1.075      1.0000      -999.0      -999.0      -999.0    
       -999.0      -999.0      -999.0      -999.0      -999.0      -999.0      -999.0      -999.0      -999.0      -999.0    
  37   -999.0      -999.0      -999.0      -999.0      -999.0      -999.0      -999.0      -999.0      -999.0      -999.0    
       -999.0      -999.0      -999.0      -999.0      -999.0      -999.0      -999.0      -999.0      -999.0      -999.0    
       -999.0      -999.0      -999.0      -999.0      -999.0      -999.0      -999.0      -999.0      -999.0      -999.0    
       -999.0      -999.0      -999.0      -999.0      -999.0      -999.0      -999.0      -999.0      -999.0      -999.0    
       -999.0      -999.0      -999.0      1.0000       1.349       1.853       2.261       2.501       2.495       2.522    
        2.472       2.263       1.797       1.742       1.584       1.356      1.0000      -999.0      -999.0      -999.0    
       -999.0      -999.0      1.0000       1.363       1.599       1.735       1.794       1.782       1.689       1.487    
       1.0000      1.0000      1.0000      1.0000      -999.0      -999.0      -999.0      -999.0      -999.0      -999.0    
       1.0000      1.0000       1.082       1.076      1.0000      1.0000      1.0000      -999.0      -999.0      -999.0    
       -999.0      -999.0      -999.0      -999.0      -999.0      -999.0      -999.0      -999.0      -999.0      -999.0    
  38   -999.0      -999.0      -999.0      -999.0      -999.0      -999.0      -999.0      -999.0      -999.0      -999.0    
       -999.0      -999.0      -999.0      -999.0      -999.0      -999.0      -999.0      -999.0      -999.0      -999.0    
       -999.0      -999.0      -999.0      -999.0      -999.0      -999.0      -999.0      -999.0      -999.0      -999.0    
       -999.0      -999.0      -999.0      -999.0      -999.0      -999.0      -999.0      -999.0      -999.0      -999.0    
       1.0000      1.0000      -999.0      1.0000       1.252       1.909       2.393       2.662       2.791       2.830    
        2.763       2.559       2.216       2.032       1.800       1.483      1.0000      -999.0      -999.0      -999.0    
       -999.0      -999.0      1.0000       1.335       1.543       1.653       1.695       1.669       1.565       1.376    
       1.0000      1.0000      1.0000      1.0000      -999.0      -999.0      -999.0      -999.0      -999.0      -999.0    
       -999.0      1.0000       1.043      1.0000      1.0000      -999.0      -999.0      -999.0      -999.0      -999.0    
       -999.0      -999.0      -999.0      -999.0      -999.0      -999.0      -999.0      -999.0      -999.0      -999.0    
  39   -999.0      -999.0      -999.0      -999.0      -999.0      -999.0      -999.0      -999.0      -999.0      -999.0    
       -999.0      -999.0      -999.0      -999.0      -999.0      -999.0      -999.0      -999.0      -999.0      -999.0    
       -999.0      -999.0      -999.0      -999.0      -999.0      -999.0      -999.0      -999.0      -999.0      -999.0    
       -999.0      -999.0      -999.0      -999.0      -999.0      -999.0      -999.0      -999.0      -999.0      -999.0    
       1.0000      1.0000      1.0000      1.0000      1.0000       1.969       2.540       2.797       3.049       3.103    
        3.028       2.828       2.530       2.273       1.976       1.594      1.0000      1.0000      1.0000      -999.0    
       -999.0      -999.0      1.0000       1.296       1.468       1.545       1.568       1.532       1.419       1.269    
       1.0000      -999.0      -999.0      -999.0      -999.0      -999.0      -999.0      -999.0      -999.0      -999.0    
       -999.0      1.0000      1.0000      1.0000      -999.0      -999.0      -999.0      -999.0      -999.0      -999.0    
       -999.0      -999.0      -999.0      -999.0      -999.0      -999.0      -999.0      -999.0      -999.0      -999.0    
  40   -999.0      -999.0      -999.0      -999.0      -999.0      -999.0      -999.0      -999.0      -999.0      -999.0    
       -999.0      -999.0      -999.0      -999.0      -999.0      -999.0      -999.0      -999.0      -999.0      -999.0    
       -999.0      -999.0      -999.0      -999.0      -999.0      -999.0      -999.0      -999.0      -999.0      -999.0    
       -999.0      -999.0      -999.0      -999.0      -999.0      -999.0      -999.0      -999.0      -999.0      1.0000    
       1.0000       1.135      1.0000      -999.0      1.0000       2.091       2.728       3.077       3.296       3.346    
        3.263       3.060       2.769       2.463       2.113       1.700       1.222       1.083      1.0000      -999.0    
       -999.0      -999.0      1.0000       1.246       1.374       1.406       1.412       1.370       1.238       1.150    
       1.0000      -999.0      -999.0      -999.0      -999.0      -999.0      -999.0      -999.0      -999.0      -999.0    
       -999.0      -999.0      1.0000      -999.0      -999.0      -999.0      -999.0      -999.0      -999.0      -999.0    
       -999.0      -999.0      -999.0      -999.0      -999.0      -999.0      -999.0      -999.0      -999.0      -999.0    
  41   -999.0      -999.0      -999.0      -999.0      -999.0      -999.0      -999.0      -999.0      -999.0      -999.0    
       -999.0      -999.0      -999.0      -999.0      -999.0      -999.0      -999.0      -999.0      -999.0      -999.0    
       -999.0      -999.0      -999.0      -999.0      1.0000      -999.0      -999.0      -999.0      -999.0      -999.0    
       -999.0      1.0000      -999.0      -999.0      -999.0      -999.0      -999.0      -999.0      1.0000      1.0000    
        1.267       1.314      1.0000      1.0000      1.0000       2.293       2.950       3.328       3.526       3.563    
        3.466       3.253       2.950       2.603       2.204       1.762       1.290       1.088      1.0000      -999.0    
       -999.0      -999.0      1.0000       1.183       1.261       1.229       1.224       1.188      1.0000      1.0000    
       1.0000      -999.0      -999.0      -999.0      -999.0      -999.0      -999.0      -999.0      -999.0      -999.0    
       -999.0      -999.0      -999.0      -999.0      -999.0      -999.0      -999.0      -999.0      -999.0      -999.0    
       -999.0      -999.0      -999.0      -999.0      -999.0      -999.0      -999.0      -999.0      -999.0      -999.0    
  42   -999.0      -999.0      -999.0      -999.0      -999.0      -999.0      -999.0      -999.0      -999.0      -999.0    
       -999.0      -999.0      -999.0      -999.0      -999.0      -999.0      -999.0      -999.0      -999.0      -999.0    
       -999.0      -999.0      -999.0      1.0000      1.0000      -999.0      -999.0      -999.0      -999.0      1.0000    
       1.0000      1.0000      -999.0      -999.0      -999.0      -999.0      -999.0      -999.0      1.0000       1.307    
        1.566       1.565      1.0000      1.0000       1.721       2.623       3.204       3.564       3.736       3.752    
        3.637       3.406       3.082       2.694       2.245       1.770       1.221      1.0000      1.0000      -999.0    
       -999.0      -999.0      1.0000       1.104       1.131      1.0000      1.0000      1.0000      1.0000      -999.0    
       -999.0      -999.0      -999.0      -999.0      -999.0      -999.0      -999.0      -999.0      -999.0      -999.0    
       -999.0      -999.0      -999.0      -999.0      -999.0      -999.0      -999.0      -999.0      -999.0      -999.0    
       -999.0      -999.0      -999.0      -999.0      -999.0      -999.0      -999.0      -999.0      -999.0      -999.0    
  43   -999.0      -999.0      -999.0      -999.0      -999.0      -999.0      -999.0      -999.0      -999.0      -999.0    
       -999.0      -999.0      -999.0      -999.0      -999.0      -999.0      -999.0      -999.0      -999.0      1.0000    
       -999.0      1.0000      1.0000      1.0000      1.0000      -999.0      -999.0      -999.0      1.0000      1.0000    
       1.0000      1.0000      -999.0      -999.0      -999.0      -999.0      -999.0      1.0000      1.0000       1.599    
        1.908       1.942       1.678       1.817       2.348       2.996       3.474       3.787       3.924       3.914    
        3.775       3.522       3.168       2.740       2.231       1.735      1.0000      1.0000      -999.0      -999.0    
       -999.0      -999.0      1.0000      1.0000      1.0000      1.0000      1.0000      -999.0      -999.0      -999.0    
       -999.0      -999.0      -999.0      -999.0      -999.0      -999.0      -999.0      -999.0      -999.0      -999.0    
       -999.0      -999.0      -999.0      -999.0      -999.0      -999.0      -999.0      -999.0      -999.0      -999.0    
       -999.0      -999.0      -999.0      -999.0      -999.0      -999.0      -999.0      -999.0      -999.0      -999.0    
  44   -999.0      -999.0      -999.0      -999.0      -999.0      -999.0      -999.0      -999.0      -999.0      -999.0    
       -999.0      -999.0      -999.0      -999.0      -999.0      -999.0      -999.0      1.0000      1.0000      1.0000    
       1.0000      1.0000      1.0000       1.148      1.0000      1.0000      1.0000      1.0000      1.0000       1.339    
        1.304      1.0000      1.0000      1.0000      -999.0      1.0000      1.0000      1.0000      1.0000       1.942    
        2.298       2.372       2.202       2.481       2.898       3.371       3.743       3.994       4.089       4.047    
        3.881       3.600       3.212       2.747       2.150       1.704      1.0000      -999.0      -999.0      -999.0    
       -999.0      -999.0      1.0000      -999.0      -999.0      -999.0      -999.0      -999.0      -999.0      -999.0    
       -999.0      -999.0      -999.0      -999.0      -999.0      -999.0      -999.0      -999.0      -999.0      -999.0    
       -999.0      -999.0      -999.0      -999.0      -999.0      -999.0      -999.0      -999.0      -999.0      -999.0    
       -999.0      -999.0      -999.0      -999.0      -999.0      -999.0      -999.0      -999.0      -999.0      -999.0    
  45   -999.0      -999.0      -999.0      -999.0      -999.0      -999.0      -999.0      -999.0      -999.0      -999.0    
       -999.0      -999.0      -999.0      -999.0      -999.0      1.0000      1.0000      1.0000      1.0000       1.188    
       1.0000      1.0000       1.329       1.364      1.0000      1.0000      1.0000      1.0000       1.511       1.754    
        1.655      1.0000      1.0000      1.0000      1.0000      1.0000      1.0000       1.582       1.824       2.417    
        2.736       2.840       2.766       3.064       3.387       3.728       4.002       4.180       4.227       4.150    
        3.955       3.644       3.215       2.727       2.173       1.677      1.0000      1.0000      -999.0      -999.0    
       -999.0      -999.0      -999.0      -999.0      -999.0      -999.0      -999.0      -999.0      -999.0      -999.0    
       -999.0      -999.0      -999.0      -999.0      -999.0      -999.0      -999.0      -999.0      -999.0      -999.0    
       -999.0      -999.0      -999.0      -999.0      -999.0      -999.0      -999.0      -999.0      -999.0      -999.0    
       -999.0      -999.0      -999.0      -999.0      -999.0      -999.0      -999.0      -999.0      -999.0      -999.0    
  46   -999.0      -999.0      -999.0      -999.0      -999.0      -999.0      -999.0      -999.0      -999.0      -999.0    
       -999.0      -999.0      -999.0      -999.0      -999.0      1.0000      1.0000       1.188       1.306       1.463    
        1.461       1.522       1.704       1.657      1.0000      1.0000       1.548       1.724       2.055       2.225    
        2.132       1.731       1.496      1.0000      1.0000       1.510       1.772       2.203       2.500       2.913    
        3.181       3.305       3.359       3.561       3.793       4.027       4.210       4.317       4.314       4.201    
        3.976       3.636       3.174       2.664       2.121       1.638       1.175      1.0000      1.0000      -999.0    
       -999.0      -999.0      -999.0      -999.0      -999.0      -999.0      -999.0      -999.0      -999.0      -999.0    
       -999.0      -999.0      -999.0      -999.0      -999.0      -999.0      -999.0      -999.0      -999.0      -999.0    
       -999.0      -999.0      -999.0      -999.0      -999.0      -999.0      -999.0      -999.0      -999.0      -999.0    
       -999.0      -999.0      -999.0      -999.0      -999.0      -999.0      -999.0      -999.0      -999.0      -999.0    
  47   -999.0      -999.0      -999.0      -999.0      -999.0      -999.0      -999.0      -999.0      -999.0      -999.0    
       -999.0      -999.0      -999.0      -999.0      -999.0      1.0000      1.0000       1.378       1.584       1.765    
        1.871       1.979       2.110       2.083       1.787       1.824       2.157       2.365       2.605       2.727    
        2.654       2.373       2.018      1.0000      1.0000       2.042       2.446       2.807       3.091       3.397    
        3.613       3.737       3.834       3.972       4.122       4.262       4.361       4.401       4.348       4.199    
        3.945       3.577       3.085       2.549       1.992       1.534       1.211       1.046      1.0000      -999.0    
       -999.0      -999.0      -999.0      -999.0      -999.0      -999.0      -999.0      -999.0      -999.0      -999.0    
       -999.0      -999.0      -999.0      -999.0      -999.0      -999.0      -999.0      -999.0      -999.0      -999.0    
       -999.0      -999.0      -999.0      -999.0      -999.0      -999.0      -999.0      -999.0      -999.0      -999.0    
       -999.0      -999.0      -999.0      -999.0      -999.0      -999.0      -999.0      -999.0      -999.0      -999.0    
  48   -999.0      -999.0      -999.0      -999.0      -999.0      -999.0      -999.0      -999.0      -999.0      -999.0    
       -999.0      -999.0      -999.0      -999.0      -999.0      1.0000       1.256       1.599       1.853       2.070    
        2.248       2.397       2.526       2.548       2.450       2.524       2.760       2.960       3.148       3.244    
        3.194       2.991       2.676       2.118       2.122       2.705       3.078       3.380       3.624       3.852    
        4.019       4.124       4.219       4.302       4.376       4.431       4.450       4.425       4.324       4.141    
        3.861       3.467       2.948       2.379       1.775       1.332       1.143      1.0000      1.0000      -999.0    
       -999.0      -999.0      -999.0      -999.0      -999.0      -999.0      -999.0      -999.0      -999.0      -999.0    
       -999.0      -999.0      -999.0      -999.0      -999.0      -999.0      -999.0      -999.0      -999.0      -999.0    
       -999.0      -999.0      -999.0      -999.0      -999.0      -999.0      -999.0      -999.0      -999.0      -999.0    
       -999.0      -999.0      -999.0      -999.0      -999.0      -999.0      -999.0      -999.0      -999.0      -999.0    
  49   -999.0      -999.0      -999.0      -999.0      -999.0      -999.0      -999.0      -999.0      -999.0      -999.0    
       -999.0      -999.0      1.0000      -999.0      1.0000      1.0000       1.472       1.828       2.116       2.369    
        2.600       2.788       2.938       3.015       3.032       3.142       3.335       3.518       3.677       3.763    
        3.737       3.595       3.356       3.037       3.040       3.380       3.676       3.917       4.109       4.272    
        4.388       4.462       4.531       4.558       4.558       4.532       4.475       4.387       4.239       4.026    
        3.724       3.308       2.763       2.159       1.452      1.0000      1.0000      1.0000      -999.0      -999.0    
       -999.0      -999.0      -999.0      -999.0      -999.0      -999.0      -999.0      -999.0      -999.0      -999.0    
       -999.0      -999.0      -999.0      -999.0      -999.0      -999.0      -999.0      -999.0      -999.0      -999.0    
       -999.0      -999.0      -999.0      -999.0      -999.0      -999.0      -999.0      -999.0      -999.0      -999.0    
       -999.0      -999.0      -999.0      -999.0      -999.0      -999.0      -999.0      -999.0      -999.0      -999.0    
  50   -999.0      -999.0      -999.0      -999.0      -999.0      -999.0      -999.0      -999.0      -999.0      -999.0    
       -999.0      1.0000      1.0000      1.0000      1.0000       1.299       1.702       2.060       2.372       2.658    
        2.932       3.156       3.337       3.464       3.557       3.697       3.874       4.043       4.187       4.273    
        4.272       4.181       4.013       3.823       3.822       4.022       4.238       4.414       4.550       4.653    
        4.717       4.749       4.776       4.743       4.669       4.564       4.432       4.280       4.087       3.850    
        3.533       3.100       2.533       1.906      1.0000      1.0000      -999.0      1.0000      -999.0      -999.0    
       -999.0      -999.0      -999.0      -999.0      -999.0      -999.0      -999.0      -999.0      -999.0      -999.0    
       -999.0      -999.0      -999.0      -999.0      -999.0      -999.0      -999.0      -999.0      -999.0      -999.0    
       -999.0      -999.0      -999.0      -999.0      -999.0      -999.0      -999.0      -999.0      -999.0      -999.0    
       -999.0      -999.0      -999.0      -999.0      -999.0      -999.0      -999.0      -999.0      -999.0      -999.0    
  51   -999.0      -999.0      -999.0      -999.0      -999.0      -999.0      -999.0      -999.0      -999.0      -999.0    
       1.0000      1.0000      1.0000      1.0000       1.233       1.553       1.929       2.287       2.619       2.935    
        3.244       3.503       3.719       3.890       4.037       4.203       4.377       4.537       4.674       4.769    
        4.793       4.744       4.633       4.513       4.504       4.616       4.758       4.870       4.947       4.992    
        5.004       4.986       4.961       4.863       4.713       4.526       4.317       4.101       3.863       3.613    
        3.290       2.843       2.260       1.668      1.0000      -999.0      -999.0      -999.0      -999.0      -999.0    
       -999.0      -999.0      -999.0      -999.0      -999.0      -999.0      -999.0      -999.0      -999.0      -999.0    
       -999.0      -999.0      -999.0      -999.0      -999.0      -999.0      -999.0      -999.0      -999.0      -999.0    
       -999.0      -999.0      -999.0      -999.0      -999.0      -999.0      -999.0      -999.0      -999.0      -999.0    
       -999.0      -999.0      -999.0      -999.0      -999.0      -999.0      -999.0      -999.0      -999.0      -999.0    
  52   -999.0      -999.0      -999.0      -999.0      -999.0      -999.0      -999.0      -999.0      -999.0      -999.0    
       1.0000      1.0000      1.0000      1.0000       1.426       1.775       2.143       2.506       2.855       3.196    
        3.538       3.830       4.080       4.291       4.478       4.668       4.844       4.999       5.134       5.245    
        5.295       5.281       5.211       5.130       5.109       5.159       5.234       5.283       5.301       5.289    
        5.246       5.174       5.088       4.920       4.689       4.416       4.127       3.844       3.558       3.310    
        2.997       2.539       1.928       1.386      1.0000      -999.0      -999.0      -999.0      -999.0      -999.0    
[...]
       -999.0      -999.0      -999.0      -999.0      -999.0      -999.0      -999.0      -999.0      -999.0      -999.0    
  87   -999.0      -999.0      -999.0      -999.0      -999.0      -999.0      -999.0      -999.0      -999.0      -999.0    
       -999.0      -999.0      -999.0      -999.0      -999.0      -999.0      -999.0      -999.0      -999.0      -999.0    
       -999.0      -999.0      -999.0      -999.0      1.0000      1.0000      1.0000       1.351       1.450       1.391    
        1.394       1.400       1.424      1.0000      1.0000      1.0000       1.204       1.233      1.0000      1.0000    
       -999.0      -999.0      -999.0      -999.0      -999.0      -999.0      -999.0      -999.0      -999.0      -999.0    
       -999.0      -999.0      -999.0      -999.0      -999.0      -999.0      -999.0      -999.0      -999.0      -999.0    
       -999.0      -999.0      -999.0      -999.0      -999.0      -999.0      -999.0      -999.0      -999.0      -999.0    
       -999.0      -999.0      -999.0      -999.0      -999.0      -999.0      -999.0      -999.0      -999.0      -999.0    
       -999.0      -999.0      -999.0      -999.0      -999.0      -999.0      -999.0      -999.0      -999.0      -999.0    
       -999.0      -999.0      -999.0      -999.0      -999.0      -999.0      -999.0      -999.0      -999.0      -999.0    
  88   -999.0      -999.0      -999.0      -999.0      -999.0      -999.0      -999.0      -999.0      -999.0      -999.0    
       -999.0      -999.0      -999.0      -999.0      -999.0      -999.0      -999.0      -999.0      -999.0      -999.0    
       -999.0      -999.0      -999.0      -999.0      -999.0      -999.0      1.0000       1.168       1.202      1.0000    
       1.0000      1.0000       1.222      1.0000      1.0000      1.0000      1.0000       1.116      1.0000      -999.0    
       -999.0      -999.0      -999.0      -999.0      -999.0      -999.0      -999.0      -999.0      -999.0      -999.0    
       -999.0      -999.0      -999.0      -999.0      -999.0      -999.0      -999.0      -999.0      -999.0      -999.0    
       -999.0      -999.0      -999.0      -999.0      -999.0      -999.0      -999.0      -999.0      -999.0      -999.0    
       -999.0      -999.0      -999.0      -999.0      -999.0      -999.0      -999.0      -999.0      -999.0      -999.0    
       -999.0      -999.0      -999.0      -999.0      -999.0      -999.0      -999.0      -999.0      -999.0      -999.0    
       -999.0      -999.0      -999.0      -999.0      -999.0      -999.0      -999.0      -999.0      -999.0      -999.0    
  89   -999.0      -999.0      -999.0      -999.0      -999.0      -999.0      -999.0      -999.0      -999.0      -999.0    
       -999.0      -999.0      -999.0      -999.0      -999.0      -999.0      -999.0      -999.0      -999.0      -999.0    
       -999.0      -999.0      -999.0      -999.0      -999.0      -999.0      1.0000      1.0000      1.0000      1.0000    
       -999.0      1.0000       1.123      1.0000      -999.0      -999.0      1.0000       1.050      1.0000      -999.0    
       -999.0      -999.0      -999.0      -999.0      -999.0      -999.0      -999.0      -999.0      -999.0      -999.0    
       -999.0      -999.0      -999.0      -999.0      -999.0      -999.0      -999.0      -999.0      -999.0      -999.0    
       -999.0      -999.0      -999.0      -999.0      -999.0      -999.0      -999.0      -999.0      -999.0      -999.0    
       -999.0      -999.0      -999.0      -999.0      -999.0      -999.0      -999.0      -999.0      -999.0      -999.0    
       -999.0      -999.0      -999.0      -999.0      -999.0      -999.0      -999.0      -999.0      -999.0      -999.0    
       -999.0      -999.0      -999.0      -999.0      -999.0      -999.0      -999.0      -999.0      -999.0      -999.0    
  90   -999.0      -999.0      -999.0      -999.0      -999.0      -999.0      -999.0      -999.0      -999.0      -999.0    
       -999.0      -999.0      -999.0      -999.0      -999.0      -999.0      -999.0      -999.0      -999.0      -999.0    
       -999.0      -999.0      -999.0      -999.0      -999.0      -999.0      -999.0      -999.0      1.0000      -999.0    
       -999.0      1.0000       1.073      1.0000      -999.0      -999.0      1.0000      1.0000      1.0000      -999.0    
       -999.0      -999.0      -999.0      -999.0      -999.0      -999.0      -999.0      -999.0      -999.0      -999.0    
       -999.0      -999.0      -999.0      -999.0      -999.0      -999.0      -999.0      -999.0      -999.0      -999.0    
       -999.0      -999.0      -999.0      -999.0      -999.0      -999.0      -999.0      -999.0      -999.0      -999.0    
       -999.0      -999.0      -999.0      -999.0      -999.0      -999.0      -999.0      -999.0      -999.0      -999.0    
       -999.0      -999.0      -999.0      -999.0      -999.0      -999.0      -999.0      -999.0      -999.0      -999.0    
       -999.0      -999.0      -999.0      -999.0      -999.0      -999.0      -999.0      -999.0      -999.0      -999.0    
  91   -999.0      -999.0      -999.0      -999.0      -999.0      -999.0      -999.0      -999.0      -999.0      -999.0    
       -999.0      -999.0      -999.0      -999.0      -999.0      -999.0      -999.0      -999.0      -999.0      -999.0    
       -999.0      -999.0      -999.0      -999.0      -999.0      -999.0      -999.0      -999.0      1.0000      -999.0    
       -999.0      1.0000       1.045      1.0000      -999.0      -999.0      -999.0      1.0000      -999.0      -999.0    
       -999.0      -999.0      -999.0      -999.0      -999.0      -999.0      -999.0      -999.0      -999.0      -999.0    
       -999.0      -999.0      -999.0      -999.0      -999.0      -999.0      -999.0      -999.0      -999.0      -999.0    
       -999.0      -999.0      -999.0      -999.0      -999.0      -999.0      -999.0      -999.0      -999.0      -999.0    
       -999.0      -999.0      -999.0      -999.0      -999.0      -999.0      -999.0      -999.0      -999.0      -999.0    
       -999.0      -999.0      -999.0      -999.0      -999.0      -999.0      -999.0      -999.0      -999.0      -999.0    
       -999.0      -999.0      -999.0      -999.0      -999.0      -999.0      -999.0      -999.0      -999.0      -999.0    
  92   -999.0      -999.0      -999.0      -999.0      -999.0      -999.0      -999.0      -999.0      -999.0      -999.0    
       -999.0      -999.0      -999.0      -999.0      -999.0      -999.0      -999.0      -999.0      -999.0      -999.0    
       -999.0      -999.0      -999.0      -999.0      -999.0      -999.0      -999.0      -999.0      -999.0      -999.0    
       1.0000      1.0000       1.025      1.0000      -999.0      -999.0      -999.0      -999.0      -999.0      -999.0    
       -999.0      -999.0      -999.0      -999.0      -999.0      -999.0      -999.0      -999.0      -999.0      -999.0    
       -999.0      -999.0      -999.0      -999.0      -999.0      -999.0      -999.0      -999.0      -999.0      -999.0    
       -999.0      -999.0      -999.0      -999.0      -999.0      -999.0      -999.0      -999.0      -999.0      -999.0    
       -999.0      -999.0      -999.0      -999.0      -999.0      -999.0      -999.0      -999.0      -999.0      -999.0    
       -999.0      -999.0      -999.0      -999.0      -999.0      -999.0      -999.0      -999.0      -999.0      -999.0    
       -999.0      -999.0      -999.0      -999.0      -999.0      -999.0      -999.0      -999.0      -999.0      -999.0    
  93   -999.0      -999.0      -999.0      -999.0      -999.0      -999.0      -999.0      -999.0      -999.0      -999.0    
       -999.0      -999.0      -999.0      -999.0      -999.0      -999.0      -999.0      -999.0      -999.0      -999.0    
       -999.0      -999.0      -999.0      -999.0      -999.0      -999.0      -999.0      -999.0      -999.0      -999.0    
       1.0000      1.0000      1.0000      1.0000      -999.0      -999.0      -999.0      -999.0      -999.0      -999.0    
       -999.0      -999.0      -999.0      -999.0      -999.0      -999.0      -999.0      -999.0      -999.0      -999.0    
       -999.0      -999.0      -999.0      -999.0      -999.0      -999.0      -999.0      -999.0      -999.0      -999.0    
       -999.0      -999.0      -999.0      -999.0      -999.0      -999.0      -999.0      -999.0      -999.0      -999.0    
       -999.0      -999.0      -999.0      -999.0      -999.0      -999.0      -999.0      -999.0      -999.0      -999.0    
       -999.0      -999.0      -999.0      -999.0      -999.0      -999.0      -999.0      -999.0      -999.0      -999.0    
       -999.0      -999.0      -999.0      -999.0      -999.0      -999.0      -999.0      -999.0      -999.0      -999.0    
  94   -999.0      -999.0      -999.0      -999.0      -999.0      -999.0      -999.0      -999.0      -999.0      -999.0    
       -999.0      -999.0      -999.0      -999.0      -999.0      -999.0      -999.0      -999.0      -999.0      -999.0    
       -999.0      -999.0      -999.0      -999.0      -999.0      -999.0      -999.0      -999.0      -999.0      -999.0    
       -999.0      1.0000      1.0000      -999.0      -999.0      -999.0      -999.0      -999.0      -999.0      -999.0    
       -999.0      -999.0      -999.0      -999.0      -999.0      -999.0      -999.0      -999.0      -999.0      -999.0    
       -999.0      -999.0      -999.0      -999.0      -999.0      -999.0      -999.0      -999.0      -999.0      -999.0    
       -999.0      -999.0      -999.0      -999.0      -999.0      -999.0      -999.0      -999.0      -999.0      -999.0    
       -999.0      -999.0      -999.0      -999.0      -999.0      -999.0      -999.0      -999.0      -999.0      -999.0    
       -999.0      -999.0      -999.0      -999.0      -999.0      -999.0      -999.0      -999.0      -999.0      -999.0    
       -999.0      -999.0      -999.0      -999.0      -999.0      -999.0      -999.0      -999.0      -999.0      -999.0    
  95   -999.0      -999.0      -999.0      -999.0      -999.0      -999.0      -999.0      -999.0      -999.0      -999.0    
       -999.0      -999.0      -999.0      -999.0      -999.0      -999.0      -999.0      -999.0      -999.0      -999.0    
       -999.0      -999.0      -999.0      -999.0      -999.0      -999.0      -999.0      -999.0      -999.0      -999.0    
       -999.0      1.0000      1.0000      -999.0      -999.0      -999.0      -999.0      -999.0      -999.0      -999.0    
       -999.0      -999.0      -999.0      -999.0      -999.0      -999.0      -999.0      -999.0      -999.0      -999.0    
       -999.0      -999.0      -999.0      -999.0      -999.0      -999.0      -999.0      -999.0      -999.0      -999.0    
       -999.0      -999.0      -999.0      -999.0      -999.0      -999.0      -999.0      -999.0      -999.0      -999.0    
       -999.0      -999.0      -999.0      -999.0      -999.0      -999.0      -999.0      -999.0      -999.0      -999.0    
       -999.0      -999.0      -999.0      -999.0      -999.0      -999.0      -999.0      -999.0      -999.0      -999.0    
       -999.0      -999.0      -999.0      -999.0      -999.0      -999.0      -999.0      -999.0      -999.0      -999.0    
  96   -999.0      -999.0      -999.0      -999.0      -999.0      -999.0      -999.0      -999.0      -999.0      -999.0    
       -999.0      -999.0      -999.0      -999.0      -999.0      -999.0      -999.0      -999.0      -999.0      -999.0    
       -999.0      -999.0      -999.0      -999.0      -999.0      -999.0      -999.0      -999.0      -999.0      -999.0    
       -999.0      1.0000      1.0000      -999.0      -999.0      -999.0      -999.0      -999.0      -999.0      -999.0    
       -999.0      -999.0      -999.0      -999.0      -999.0      -999.0      -999.0      -999.0      -999.0      -999.0    
       -999.0      -999.0      -999.0      -999.0      -999.0      -999.0      -999.0      -999.0      -999.0      -999.0    
       -999.0      -999.0      -999.0      -999.0      -999.0      -999.0      -999.0      -999.0      -999.0      -999.0    
       -999.0      -999.0      -999.0      -999.0      -999.0      -999.0      -999.0      -999.0      -999.0      -999.0    
       -999.0      -999.0      -999.0      -999.0      -999.0      -999.0      -999.0      -999.0      -999.0      -999.0    
       -999.0      -999.0      -999.0      -999.0      -999.0      -999.0      -999.0      -999.0      -999.0      -999.0    
  97   -999.0      -999.0      -999.0      -999.0      -999.0      -999.0      -999.0      -999.0      -999.0      -999.0    
       -999.0      -999.0      -999.0      -999.0      -999.0      -999.0      -999.0      -999.0      -999.0      -999.0    
       -999.0      -999.0      -999.0      -999.0      -999.0      -999.0      -999.0      -999.0      -999.0      -999.0    
       -999.0      -999.0      -999.0      -999.0      -999.0      -999.0      -999.0      -999.0      -999.0      -999.0    
       -999.0      -999.0      -999.0      -999.0      -999.0      -999.0      -999.0      -999.0      -999.0      -999.0    
       -999.0      -999.0      -999.0      -999.0      -999.0      -999.0      -999.0      -999.0      -999.0      -999.0    
       -999.0      -999.0      -999.0      -999.0      -999.0      -999.0      -999.0      -999.0      -999.0      -999.0    
       -999.0      -999.0      -999.0      -999.0      -999.0      -999.0      -999.0      -999.0      -999.0      -999.0    
       -999.0      -999.0      -999.0      -999.0      -999.0      -999.0      -999.0      -999.0      -999.0      -999.0    
       -999.0      -999.0      -999.0      -999.0      -999.0      -999.0      -999.0      -999.0      -999.0      -999.0    
  98   -999.0      -999.0      -999.0      -999.0      -999.0      -999.0      -999.0      -999.0      -999.0      -999.0    
       -999.0      -999.0      -999.0      -999.0      -999.0      -999.0      -999.0      -999.0      -999.0      -999.0    
       -999.0      -999.0      -999.0      -999.0      -999.0      -999.0      -999.0      -999.0      -999.0      -999.0    
       -999.0      -999.0      -999.0      -999.0      -999.0      -999.0      -999.0      -999.0      -999.0      -999.0    
       -999.0      -999.0      -999.0      -999.0      -999.0      -999.0      -999.0      -999.0      -999.0      -999.0    
       -999.0      -999.0      -999.0      -999.0      -999.0      -999.0      -999.0      -999.0      -999.0      -999.0    
       -999.0      -999.0      -999.0      -999.0      -999.0      -999.0      -999.0      -999.0      -999.0      -999.0    
       -999.0      -999.0      -999.0      -999.0      -999.0      -999.0      -999.0      -999.0      -999.0      -999.0    
       -999.0      -999.0      -999.0      -999.0      -999.0      -999.0      -999.0      -999.0      -999.0      -999.0    
       -999.0      -999.0      -999.0      -999.0      -999.0      -999.0      -999.0      -999.0      -999.0      -999.0    
  99   -999.0      -999.0      -999.0      -999.0      -999.0      -999.0      -999.0      -999.0      -999.0      -999.0    
       -999.0      -999.0      -999.0      -999.0      -999.0      -999.0      -999.0      -999.0      -999.0      -999.0    
       -999.0      -999.0      -999.0      -999.0      -999.0      -999.0      -999.0      -999.0      -999.0      -999.0    
       -999.0      -999.0      -999.0      -999.0      -999.0      -999.0      -999.0      -999.0      -999.0      -999.0    
       -999.0      -999.0      -999.0      -999.0      -999.0      -999.0      -999.0      -999.0      -999.0      -999.0    
       -999.0      -999.0      -999.0      -999.0      -999.0      -999.0      -999.0      -999.0      -999.0      -999.0    
       -999.0      -999.0      -999.0      -999.0      -999.0      -999.0      -999.0      -999.0      -999.0      -999.0    
       -999.0      -999.0      -999.0      -999.0      -999.0      -999.0      -999.0      -999.0      -999.0      -999.0    
       -999.0      -999.0      -999.0      -999.0      -999.0      -999.0      -999.0      -999.0      -999.0      -999.0    
       -999.0      -999.0      -999.0      -999.0      -999.0      -999.0      -999.0      -999.0      -999.0      -999.0    
 100   -999.0      -999.0      -999.0      -999.0      -999.0      -999.0      -999.0      -999.0      -999.0      -999.0    
       -999.0      -999.0      -999.0      -999.0      -999.0      -999.0      -999.0      -999.0      -999.0      -999.0    
       -999.0      -999.0      -999.0      -999.0      -999.0      -999.0      -999.0      -999.0      -999.0      -999.0    
       -999.0      -999.0      -999.0      -999.0      -999.0      -999.0      -999.0      -999.0      -999.0      -999.0    
       -999.0      -999.0      -999.0      -999.0      -999.0      -999.0      -999.0      -999.0      -999.0      -999.0    
       -999.0      -999.0      -999.0      -999.0      -999.0      -999.0      -999.0      -999.0      -999.0      -999.0    
       -999.0      -999.0      -999.0      -999.0      -999.0      -999.0      -999.0      -999.0      -999.0      -999.0    
       -999.0      -999.0      -999.0      -999.0      -999.0      -999.0      -999.0      -999.0      -999.0      -999.0    
       -999.0      -999.0      -999.0      -999.0      -999.0      -999.0      -999.0      -999.0      -999.0      -999.0    
       -999.0      -999.0      -999.0      -999.0      -999.0      -999.0      -999.0      -999.0      -999.0      -999.0    

 HEAD WILL BE SAVED ON UNIT   51 AT END OF TIME STEP    1, STRESS PERIOD    1
1
  VOLUMETRIC BUDGET FOR ENTIRE MODEL AT END OF TIME STEP    1, STRESS PERIOD   1
  ------------------------------------------------------------------------------

     CUMULATIVE VOLUMES      L**3       RATES FOR THIS TIME STEP      L**3/T
     ------------------                 ------------------------

           IN:                                      IN:
           ---                                      ---
             STORAGE =           0.0000               STORAGE =           0.0000
       CONSTANT HEAD =        1875.2576         CONSTANT HEAD =        1875.2576
               WELLS =           0.0000                 WELLS =           0.0000
            RECHARGE =      433445.9062              RECHARGE =      433445.9062

            TOTAL IN =      435321.1562              TOTAL IN =      435321.1562

          OUT:                                     OUT:
          ----                                     ----
             STORAGE =           0.0000               STORAGE =           0.0000
       CONSTANT HEAD =      373222.7812         CONSTANT HEAD =      373222.7812
               WELLS =       62000.0000                 WELLS =       62000.0000
            RECHARGE =          98.3521              RECHARGE =          98.3521

           TOTAL OUT =      435321.1250             TOTAL OUT =      435321.1250

            IN - OUT =       3.1250E-02              IN - OUT =       3.1250E-02

 PERCENT DISCREPANCY =           0.00     PERCENT DISCREPANCY =           0.00






         TIME SUMMARY AT END OF TIME STEP    1 IN STRESS PERIOD    1
                    SECONDS     MINUTES      HOURS       DAYS        YEARS
                    -----------------------------------------------------------
   TIME STEP LENGTH  86400.      1440.0      24.000     1.00000     2.73785E-03
 STRESS PERIOD TIME  86400.      1440.0      24.000     1.00000     2.73785E-03
         TOTAL TIME  86400.      1440.0      24.000     1.00000     2.73785E-03
1

 Run end date and time (yyyy/mm/dd hh:mm:ss): 2018/04/21 23:00:04
 Elapsed run time:  0.039 Seconds

