                                  MODFLOW-2005     
      U.S. GEOLOGICAL SURVEY MODULAR FINITE-DIFFERENCE GROUND-WATER FLOW MODEL
                            VERSION 1.11.00 8/8/2013

 LIST FILE: TutCoast_simple5.out  
                         UNIT    1

 OPENING "TutCoast_simple5.hed"
 FILE TYPE:DATA(BINARY)   UNIT    2   STATUS:UNKNOWN
 FORMAT:BINARY                 ACCESS:SEQUENTIAL          

 OPENING "TutCoast_simple5.ccf"
 FILE TYPE:DATA(BINARY)   UNIT   40   STATUS:UNKNOWN
 FORMAT:BINARY                 ACCESS:SEQUENTIAL          

 OPENING "TutCoast_simple5.lmt"
 FILE TYPE:LMT6   UNIT    3   STATUS:OLD    
 FORMAT:FORMATTED              ACCESS:SEQUENTIAL          
#                                                                                                                                                                                                                                                                                                           
# Obs-Sen-Pes Process Input Files                                                                                                                                                                                                                                                                           

 OPENING "TutCoast_simple5.hob"
 FILE TYPE:HOB   UNIT    4   STATUS:OLD    
 FORMAT:FORMATTED              ACCESS:SEQUENTIAL          
#                                                                                                                                                                                                                                                                                                           
# Obs Process Output File(s)                                                                                                                                                                                                                                                                                

 OPENING "TutCoast_simple5._os"
 FILE TYPE:DATA   UNIT    7   STATUS:UNKNOWN
 FORMAT:FORMATTED              ACCESS:SEQUENTIAL          
#                                                                                                                                                                                                                                                                                                           
# Global Input Files                                                                                                                                                                                                                                                                                        

 OPENING "TutCoast_simple5.dis"
 FILE TYPE:DIS   UNIT    8   STATUS:OLD    
 FORMAT:FORMATTED              ACCESS:SEQUENTIAL          
#                                                                                                                                                                                                                                                                                                           
# Flow Process Input Files                                                                                                                                                                                                                                                                                  

 OPENING "TutCoast_simple5.ba6"
 FILE TYPE:BAS6   UNIT    9   STATUS:OLD    
 FORMAT:FORMATTED              ACCESS:SEQUENTIAL          

 OPENING "TutCoast_simple5.lpf"
 FILE TYPE:LPF   UNIT   10   STATUS:OLD    
 FORMAT:FORMATTED              ACCESS:SEQUENTIAL          

 OPENING "TutCoast_simple5.oc"
 FILE TYPE:OC   UNIT   11   STATUS:OLD    
 FORMAT:FORMATTED              ACCESS:SEQUENTIAL          

 OPENING "TutCoast_simple5.rch"
 FILE TYPE:RCH   UNIT   12   STATUS:OLD    
 FORMAT:FORMATTED              ACCESS:SEQUENTIAL          

 OPENING "TutCoast_simple5.wel"
 FILE TYPE:WEL   UNIT   13   STATUS:OLD    
 FORMAT:FORMATTED              ACCESS:SEQUENTIAL          

 OPENING "TutCoast_simple5.pcg"
 FILE TYPE:PCG   UNIT   14   STATUS:OLD    
 FORMAT:FORMATTED              ACCESS:SEQUENTIAL          

 BAS -- BASIC PACKAGE, VERSION 7, 5/2/2005 INPUT READ FROM UNIT    9
 
 MODFLOW was compiled using mixed precision
 Precision of REAL variables:           6
 Precision of DOUBLE PRECISION variables:          15

 DISCRETIZATION INPUT DATA READ FROM UNIT    8
 # MF2K DISCRETIZATION FILE
 #
 #
 # NLAY NROW NCOL NPER TIMEUNITS LENUNITS
    1 LAYERS       100 ROWS       100 COLUMNS
    1 STRESS PERIOD(S) IN SIMULATION
 MODEL TIME UNIT IS DAYS
 MODEL LENGTH UNIT IS METERS
  Confining bed flag for each layer:
   0



                               DELR
 READING ON UNIT    8 WITH FORMAT: (FREE)              



                               DELC
 READING ON UNIT    8 WITH FORMAT: (FREE)              


 STRESS PERIOD     LENGTH       TIME STEPS     MULTIPLIER FOR DELT    SS FLAG
 ----------------------------------------------------------------------------
        1         1.000000          1                    1.000         SS

 STEADY-STATE SIMULATION



 
 #GMS MODFLOW Simulation                                                         
 #26 April 2018                                                                  
 THE FREE FORMAT OPTION HAS BEEN SELECTED



                     BOUNDARY ARRAY FOR LAYER   1
 READING DATA FROM HDF5 FILE

 AQUIFER HEAD WILL BE SET TO  -999.00     AT ALL NO-FLOW NODES (IBOUND=0).

 OUTPUT CONTROL IS SPECIFIED ONLY AT TIME STEPS FOR WHICH OUTPUT IS DESIRED
 COMPACT CELL-BY-CELL BUDGET FILES WILL BE WRITTEN
 AUXILIARY DATA WILL BE SAVED IN CELL-BY-CELL BUDGET FILES
 HEAD PRINT FORMAT CODE IS   0    DRAWDOWN PRINT FORMAT CODE IS   0
 HEADS WILL BE SAVED ON UNIT    2    DRAWDOWNS WILL BE SAVED ON UNIT    0

 LPF -- LAYER-PROPERTY FLOW PACKAGE, VERSION 7, 5/2/2005
         INPUT READ FROM UNIT   10
 CELL-BY-CELL FLOWS WILL BE SAVED ON UNIT   40
 HEAD AT CELLS THAT CONVERT TO DRY=  -888.00    
 No named parameters

   LAYER FLAGS:
 LAYER       LAYTYP        LAYAVG         CHANI        LAYVKA        LAYWET
 ---------------------------------------------------------------------------
    1             1             0    -1.000E+00             1             0

   INTERPRETATION OF LAYER FLAGS:
                        INTERBLOCK     HORIZONTAL    DATA IN
         LAYER TYPE   TRANSMISSIVITY   ANISOTROPY   ARRAY VKA   WETTABILITY
 LAYER      (LAYTYP)      (LAYAVG)       (CHANI)      (LAYVKA)      (LAYWET)
 ---------------------------------------------------------------------------
    1   CONVERTIBLE      HARMONIC      VARIABLE    ANISOTROPY  NON-WETTABLE

 WETTING CAPABILITY IS NOT ACTIVE IN ANY LAYER

 WEL -- WELL PACKAGE, VERSION 7, 5/2/2005 INPUT READ FROM UNIT   13
 #GMS_HDF5_01
 No named parameters
 MAXIMUM OF     62 ACTIVE WELLS AT ONE TIME
 CELL-BY-CELL FLOWS WILL BE SAVED ON UNIT   40
 AUXILIARY WELL VARIABLE: IFACE           
 AUXILIARY WELL VARIABLE: QFACT           
 AUXILIARY WELL VARIABLE: CELLGRP         


     0 Well parameters

 RCH -- RECHARGE PACKAGE, VERSION 7, 5/2/2005 INPUT READ FROM UNIT   12
 #GMS_HDF5_01
 No named parameters
 OPTION 3 -- RECHARGE TO HIGHEST ACTIVE NODE IN EACH VERTICAL COLUMN
 CELL-BY-CELL FLOWS WILL BE SAVED ON UNIT   40


     0 Recharge parameters

 PCG -- CONJUGATE-GRADIENT SOLUTION PACKAGE, VERSION 7, 5/2/2005
 MAXIMUM OF     25 CALLS OF SOLUTION ROUTINE
 MAXIMUM OF     50 INTERNAL ITERATIONS PER CALL TO SOLUTION ROUTINE
 MATRIX PRECONDITIONING TYPE :    1



                                    SOLUTION BY THE CONJUGATE-GRADIENT METHOD
                                   -------------------------------------------
                    MAXIMUM NUMBER OF CALLS TO PCG ROUTINE =       25
                        MAXIMUM ITERATIONS PER CALL TO PCG =       50
                               MATRIX PRECONDITIONING TYPE =        1
        RELAXATION FACTOR (ONLY USED WITH PRECOND. TYPE 1) =    0.10000E+01
 PARAMETER OF POLYNOMIAL PRECOND. = 2 (2) OR IS CALCULATED :        0
                         HEAD CHANGE CRITERION FOR CLOSURE =    0.10000E-01
                     RESIDUAL CHANGE CRITERION FOR CLOSURE =    0.10000E-01
            PCG HEAD AND RESIDUAL CHANGE PRINTOUT INTERVAL =      999
     PRINTING FROM SOLVER IS LIMITED(1) OR SUPPRESSED (>1) =        2
                            STEADY-STATE DAMPING PARAMETER =    0.10000E+01
                               TRANSIENT DAMPING PARAMETER =    0.10000E+01

 WARNING READING LMT PACKAGE INPUT DATA:
 [STANDARD] HEADER NO LONGER SUPPORTED; [EXTENDED] HEADER USED INSTEAD.


 ***Link-MT3DMS Package v7***
 OPENING LINK-MT3DMS OUTPUT FILE: TutCoast_simple5.hff                                                                                                                                                                                    
 ON UNIT NUMBER:   333
 FILE TYPE: UNFORMATTED
 HEADER OPTION: EXTENDED
 ***Link-MT3DMS Package v7***


 OBS2BAS7 -- HEAD OBSERVATIONS, VERSION 2.0, 2/28/2006
 INPUT READ FROM UNIT   4
 #           CoverageGUID ObjectType ID X Y Time OBNAME
 #GMSCOMMENT 7dab1949-9623-47b5-bb91-24e77879d576 POINT 1, 528442.81114169, 8417157.9140141 ts_0 hed1
 #GMSCOMMENT 7dab1949-9623-47b5-bb91-24e77879d576 POINT 2, 525062.98176418, 8417857.5132182 ts_0 hed2
 #GMSCOMMENT 7dab1949-9623-47b5-bb91-24e77879d576 POINT 3, 524144.80478268, 8415297.2092131 ts_0 hed3
 #GMSCOMMENT 7dab1949-9623-47b5-bb91-24e77879d576 POINT 4, 539454.36713144, 8423192.2508974 ts_0 hed4
 #GMSCOMMENT 7dab1949-9623-47b5-bb91-24e77879d576 POINT 5, 535691.10256701, 8423791.8919544 ts_0 hed5
 #GMSCOMMENT 7dab1949-9623-47b5-bb91-24e77879d576 POINT 6, 536332.09817964, 8422344.4825065 ts_0 hed6
 #GMSCOMMENT 7dab1949-9623-47b5-bb91-24e77879d576 POINT 7, 525432.37754296, 8413891.1937448 ts_0 hed7
 #GMSCOMMENT 7dab1949-9623-47b5-bb91-24e77879d576 POINT 8, 519149.2803058, 8417960.8996073 ts_0 hed8
 #GMSCOMMENT 7dab1949-9623-47b5-bb91-24e77879d576 POINT 9, 531907.16072476, 8420917.7503365 ts_0 hed9
 #GMSCOMMENT 7dab1949-9623-47b5-bb91-24e77879d576 POINT 10, 541315.32213583, 8422985.4781191 ts_0 hed10
 #GMSCOMMENT 7dab1949-9623-47b5-bb91-24e77879d576 POINT 11, 527999.15521555, 8415789.7854355 ts_0 hed11
 #GMSCOMMENT 7dab1949-9623-47b5-bb91-24e77879d576 POINT 12, 526691.22549348, 8414881.8237341 ts_0 hed12
 #GMSCOMMENT 7dab1949-9623-47b5-bb91-24e77879d576 POINT 13, 527187.57956034, 8415246.3029869 ts_0 hed13
 #GMSCOMMENT 7dab1949-9623-47b5-bb91-24e77879d576 POINT 14, 527121.15990985, 8413514.7943084 ts_0 hed14
 #GMSCOMMENT 7dab1949-9623-47b5-bb91-24e77879d576 POINT 15, 544354.88197633, 8423006.155397 ts_0 hed15
 #GMSCOMMENT 7dab1949-9623-47b5-bb91-24e77879d576 POINT 16, 533189.15195001, 8419821.8546117 ts_0 hed16
 #GMSCOMMENT 7dab1949-9623-47b5-bb91-24e77879d576 POINT 17, 546174.48242506, 8423998.6647326 ts_0 hed17

 NUMBER OF HEADS....................................:   17
   NUMBER OF MULTILAYER HEADS.......................:    0
   MAXIMUM NUMBER OF LAYERS FOR MULTILAYER HEADS....:    0
 HEAD OBSERVATIONS WILL BE SAVED ON UNIT............:    7
 SIMULATED EQUIVALENT HEAD AT DRY CELLS WILL BE:   -777.000    

 OBSERVED HEAD DATA -- TIME OFFSETS ARE MULTIPLIED BY:   1.0000    

                    REFER.
       OBSERVATION  STRESS    TIME
  OBS#    NAME      PERIOD   OFFSET    OBSERVATION
     1 hed1             1    0.000       6.546    
 Observation within a steady-state time step has been moved to the end of the time step.
     2 hed2             1    0.000       6.721    
 Observation within a steady-state time step has been moved to the end of the time step.
     3 hed3             1    0.000       5.312    
 Observation within a steady-state time step has been moved to the end of the time step.
     4 hed4             1    0.000       1.627    
 Observation within a steady-state time step has been moved to the end of the time step.
     5 hed5             1    0.000       1.552    
 Observation within a steady-state time step has been moved to the end of the time step.
     6 hed6             1    0.000       1.173    
 Observation within a steady-state time step has been moved to the end of the time step.
     7 hed7             1    0.000       4.385    
 Observation within a steady-state time step has been moved to the end of the time step.
     8 hed8             1    0.000       1.296    
 Observation within a steady-state time step has been moved to the end of the time step.
     9 hed9             1    0.000       3.070    
 Observation within a steady-state time step has been moved to the end of the time step.
    10 hed10            1    0.000       1.225    
 Observation within a steady-state time step has been moved to the end of the time step.
    11 hed11            1    0.000       6.368    
 Observation within a steady-state time step has been moved to the end of the time step.
    12 hed12            1    0.000       6.445    
 Observation within a steady-state time step has been moved to the end of the time step.
    13 hed13            1    0.000       6.669    
 Observation within a steady-state time step has been moved to the end of the time step.
    14 hed14            1    0.000       3.382    
 Observation within a steady-state time step has been moved to the end of the time step.
    15 hed15            1    0.000       1.118    
 Observation within a steady-state time step has been moved to the end of the time step.
    16 hed16            1    0.000       2.608    
 Observation within a steady-state time step has been moved to the end of the time step.
    17 hed17            1    0.000       1.161    
 Observation within a steady-state time step has been moved to the end of the time step.

                                                     HEAD CHANGE
                                                      REFERENCE
        OBSERVATION                   ROW     COL    OBSERVATION
  OBS#     NAME       LAY  ROW  COL  OFFSET  OFFSET   (IF > 0)
     1  hed1            1   60   40   0.392  -0.213        0
     2  hed2            1   56   30   0.401  -0.274        0
     3  hed3            1   71   27   0.007  -0.007        0
     4  hed4            1   26   73  -0.031  -0.435        0
     5  hed5            1   23   61  -0.452   0.363        0
     6  hed6            1   31   63  -0.195   0.271        0
     7  hed7            1   79   31   0.028  -0.174        0
     8  hed8            1   56   12  -0.188   0.122        0
     9  hed9            1   39   50  -0.056   0.099        0
    10  hed10           1   27   78   0.148   0.105        0
    11  hed11           1   68   38   0.197   0.466        0
    12  hed12           1   73   35   0.377  -0.427        0
    13  hed13           1   71   36   0.297   0.050        0
    14  hed14           1   81   36   0.175  -0.147        0
    15  hed15           1   27   87   0.030   0.153        0
    16  hed16           1   45   54   0.196  -0.085        0
    17  hed17           1   21   93   0.368  -0.431        0
1
                            STRESS PERIOD NO.    1, LENGTH =   1.000000    
                            -----------------------------------------------

                              NUMBER OF TIME STEPS =     1

                               MULTIPLIER FOR DELT =     1.000

                            INITIAL TIME STEP SIZE =   1.000000    

 WELL NO.  LAYER   ROW   COL   STRESS RATE         IFACE           QFACT           CELLGRP         
 --------------------------------------------------------------------------------------------------
      1      1     56     28      -1000.           0.000           1.000           1.000    
      2      1     55     29      -1000.           0.000           1.000           2.000    
      3      1     66     36      -1000.           0.000           1.000           3.000    
      4      1     66     40      -1000.           0.000           1.000           4.000    
      5      1     65     41      -1000.           0.000           1.000           5.000    
      6      1     65     41      -1000.           0.000           1.000           6.000    
      7      1     65     41      -1000.           0.000           1.000           7.000    
      8      1     65     41      -1000.           0.000           1.000           8.000    
      9      1     64     41      -1000.           0.000           1.000           9.000    
     10      1     63     41      -1000.           0.000           1.000           10.00    
     11      1     62     41      -1000.           0.000           1.000           11.00    
     12      1     61     39      -1000.           0.000           1.000           12.00    
     13      1     61     39      -1000.           0.000           1.000           13.00    
     14      1     79     36      -1000.           0.000           1.000           14.00    
     15      1     79     36      -1000.           0.000           1.000           15.00    
     16      1     79     36      -1000.           0.000           1.000           16.00    
     17      1     78     38      -1000.           0.000           1.000           17.00    
     18      1     70     28      -1000.           0.000           1.000           18.00    
     19      1     71     29      -1000.           0.000           1.000           19.00    
     20      1     72     29      -1000.           0.000           1.000           20.00    
     21      1     74     28      -1000.           0.000           1.000           21.00    
     22      1     74     27      -1000.           0.000           1.000           22.00    
     23      1     76     30      -1000.           0.000           1.000           23.00    
     24      1     76     30      -1000.           0.000           1.000           24.00    
     25      1     77     30      -1000.           0.000           1.000           25.00    
     26      1     78     30      -1000.           0.000           1.000           26.00    
     27      1     61     39      -1000.           0.000           1.000           27.00    
     28      1     33     49      -1000.           0.000           1.000           28.00    
     29      1     35     50      -1000.           0.000           1.000           29.00    
     30      1     36     50      -1000.           0.000           1.000           30.00    
     31      1     37     49      -1000.           0.000           1.000           31.00    
     32      1     37     53      -1000.           0.000           1.000           32.00    
     33      1     30     64      -1000.           0.000           1.000           33.00    
     34      1     29     64      -1000.           0.000           1.000           34.00    
     35      1     29     78      -1000.           0.000           1.000           35.00    
     36      1     19     94      -1000.           0.000           1.000           36.00    
     37      1     20     93      -1000.           0.000           1.000           37.00    
     38      1     27     88      -1000.           0.000           1.000           38.00    
     39      1     44     43      -1000.           0.000           1.000           39.00    
     40      1     45     43      -1000.           0.000           1.000           40.00    
     41      1     66     40      -1000.           0.000           1.000           41.00    
     42      1     30     64      -1000.           0.000           1.000           42.00    
     43      1     37     53      -1000.           0.000           1.000           43.00    
     44      1     76     36      -1000.           0.000           1.000           44.00    
     45      1     21     61      -1000.           0.000           1.000           45.00    
     46      1     71     38      -1000.           0.000           1.000           46.00    
     47      1     29     67      -1000.           0.000           1.000           47.00    
     48      1     29     67      -1000.           0.000           1.000           48.00    
     49      1     72     37      -1000.           0.000           1.000           49.00    
     50      1     56     11      -1000.           0.000           1.000           50.00    
     51      1     56     11      -1000.           0.000           1.000           51.00    
     52      1     28     88      -1000.           0.000           1.000           52.00    
     53      1     72     35      -1000.           0.000           1.000           53.00    
     54      1     21     62      -1000.           0.000           1.000           54.00    
     55      1     72     34      -1000.           0.000           1.000           55.00    
     56      1     19     94      -1000.           0.000           1.000           56.00    
     57      1     26     94      -1000.           0.000           1.000           57.00    
     58      1     26     94      -1000.           0.000           1.000           58.00    
     59      1     24     72      -1000.           0.000           1.000           59.00    
     60      1     25     72      -1000.           0.000           1.000           60.00    
     61      1     44     55      -1000.           0.000           1.000           61.00    
     62      1     39     48      -1000.           0.000           1.000           62.00    

     62 WELLS
 
 SOLVING FOR HEAD 

 OUTPUT CONTROL FOR STRESS PERIOD    1   TIME STEP    1
    PRINT BUDGET
    SAVE HEAD FOR ALL LAYERS
    SAVE BUDGET
 UBDSV2 SAVING "   CONSTANT HEAD" ON UNIT  40 AT TIME STEP  1, STRESS PERIOD   1
 UBDSV1 SAVING "FLOW RIGHT FACE " ON UNIT  40 AT TIME STEP  1, STRESS PERIOD   1
 UBDSV1 SAVING "FLOW FRONT FACE " ON UNIT  40 AT TIME STEP  1, STRESS PERIOD   1
 UBDSV4 SAVING "           WELLS" ON UNIT  40 AT TIME STEP  1, STRESS PERIOD   1
 UBDSV3 SAVING "        RECHARGE" ON UNIT  40 AT TIME STEP  1, STRESS PERIOD   1

 SAVING SATURATED THICKNESS AND FLOW TERMS ON UNIT  333 FOR MT3DMS
 BY THE LINK-MT3DMS PACKAGE V7 AT TIME STEP    1, STRESS PERIOD    1


 HEAD WILL BE SAVED ON UNIT    2 AT END OF TIME STEP    1, STRESS PERIOD    1
1
  VOLUMETRIC BUDGET FOR ENTIRE MODEL AT END OF TIME STEP    1, STRESS PERIOD   1
  ------------------------------------------------------------------------------

     CUMULATIVE VOLUMES      L**3       RATES FOR THIS TIME STEP      L**3/T
     ------------------                 ------------------------

           IN:                                      IN:
           ---                                      ---
             STORAGE =           0.0000               STORAGE =           0.0000
       CONSTANT HEAD =        1875.5953         CONSTANT HEAD =        1875.5953
               WELLS =           0.0000                 WELLS =           0.0000
            RECHARGE =      433445.8750              RECHARGE =      433445.8750

            TOTAL IN =      435321.4688              TOTAL IN =      435321.4688

          OUT:                                     OUT:
          ----                                     ----
             STORAGE =           0.0000               STORAGE =           0.0000
       CONSTANT HEAD =      373223.1250         CONSTANT HEAD =      373223.1250
               WELLS =       62000.0000                 WELLS =       62000.0000
            RECHARGE =          98.3521              RECHARGE =          98.3521

           TOTAL OUT =      435321.4688             TOTAL OUT =      435321.4688

            IN - OUT =           0.0000              IN - OUT =           0.0000

 PERCENT DISCREPANCY =           0.00     PERCENT DISCREPANCY =           0.00






         TIME SUMMARY AT END OF TIME STEP    1 IN STRESS PERIOD    1
                    SECONDS     MINUTES      HOURS       DAYS        YEARS
                    -----------------------------------------------------------
   TIME STEP LENGTH  86400.      1440.0      24.000      1.0000     2.73785E-03
 STRESS PERIOD TIME  86400.      1440.0      24.000      1.0000     2.73785E-03
         TOTAL TIME  86400.      1440.0      24.000      1.0000     2.73785E-03
1

 HEAD AND DRAWDOWN OBSERVATIONS
 OBSERVATION       OBSERVED           SIMULATED
   NAME              VALUE              VALUE             DIFFERENCE
 --------------------------------------------------------------------
 hed1            6.5461134911        5.1347956657        1.4113178253    
 hed2            6.7214488983        6.0551075935       0.66634130478    
 hed3            5.3122782707        4.4767904282       0.83548784256    
 hed4            1.6268624067        1.4637473822       0.16311502457    
 hed5            1.5520190001        1.4042373896       0.14778161049    
 hed6            1.1732096672        1.0745122433       9.86974239349E-02
 hed7            4.3851513863        3.4500715733       0.93507981300    
 hed8            1.2960020304        1.2089304924       8.70715379715E-02
 hed9            3.0700736046        2.7347967625       0.33527684212    
 hed10           1.2247796059        1.1880420446       3.67375612259E-02
 hed11           6.3679990768        4.9366536140        1.4313454628    
 hed12           6.4445424080        5.0703716278        1.3741707802    
 hed13           6.6686062813        5.2360186577        1.4325876236    
 hed14           3.3818318844        2.5952475071       0.78658437729    
 hed15           1.1184107065        1.0384336710       7.99770355225E-02
 hed16           2.6083014011        2.4643709660       0.14393043518    
 hed17           1.1607866287        1.0256980658       0.13508856297    

 HEAD/DRAWDOWN SUM OF SQUARED DIFFERENCE:    1.08413E+01

 Run end date and time (yyyy/mm/dd hh:mm:ss): 2018/04/26  0:18:03
 Elapsed run time:  0.072 Seconds

