                                  MODFLOW-2000
      U.S. GEOLOGICAL SURVEY MODULAR FINITE-DIFFERENCE GROUND-WATER FLOW MODEL
                           VERSION 1.19.01 03/25/2010


 This model run produced both GLOBAL and LIST files.  This is the LIST file.

 
 #GMS MODFLOW Simulation                                                         
 #16 April 2018                                                                  
 THE FREE FORMAT OPTION HAS BEEN SELECTED
    1 LAYERS       100 ROWS       100 COLUMNS
    1 STRESS PERIOD(S) IN SIMULATION

 BAS6 -- BASIC PACKAGE, VERSION 6, 1/11/2000 INPUT READ FROM UNIT    8
          5 ELEMENTS IN IR ARRAY ARE USED BY BAS

 WEL6 -- WELL PACKAGE, VERSION 6, 1/11/2000 INPUT READ FROM UNIT   12
 #GMS_HDF5_01
 No named parameters
 MAXIMUM OF     62 ACTIVE WELLS AT ONE TIME
 CELL-BY-CELL FLOWS WILL BE SAVED ON UNIT   40
 AUXILIARY WELL VARIABLE: IFACE           
 AUXILIARY WELL VARIABLE: QFACT           
 AUXILIARY WELL VARIABLE: CELLGRP         
        434 ELEMENTS IN RX ARRAY ARE USED BY WEL

 RCH6 -- RECHARGE PACKAGE, VERSION 6, 1/11/2000 INPUT READ FROM UNIT   11
 #GMS_HDF5_01
 No named parameters
 OPTION 3 -- RECHARGE TO HIGHEST ACTIVE NODE IN EACH VERTICAL COLUMN
 CELL-BY-CELL FLOWS WILL BE SAVED ON UNIT   40
      10000 ELEMENTS IN RX ARRAY ARE USED BY RCH
      10000 ELEMENTS IN IR ARRAY ARE USED BY RCH

      10434  ELEMENTS OF RX ARRAY USED OUT OF      10434
          0  ELEMENTS OF RZ ARRAY USED OUT OF          1
      10005  ELEMENTS OF IR ARRAY USED OUT OF      10005
1
 #GMS MODFLOW Simulation                                                         
 #16 April 2018                                                                  

                1           2           3           4           5           6           7           8           9          10
               11          12          13          14          15          16          17          18          19          20
               21          22          23          24          25          26          27          28          29          30
               31          32          33          34          35          36          37          38          39          40
               41          42          43          44          45          46          47          48          49          50
               51          52          53          54          55          56          57          58          59          60
               61          62          63          64          65          66          67          68          69          70
               71          72          73          74          75          76          77          78          79          80
               81          82          83          84          85          86          87          88          89          90
               91          92          93          94          95          96          97          98          99         100
 ............................................................................................................................
   1            0           0           0           0           0           0           0           0           0           0
                0           0           0           0           0           0           0           0           0           0
                0           0           0           0           0           0           0           0           0           0
                0           0           0           0           0           0           0           0           0           0
                0           0           0           0           0           0           0           0           0           0
                0           0           0           0           0           0           0           0           0           0
                0           0           0           0           0           0           0           0           0           0
                0           0           0           0           0           0           0           0           0           0
                0           0           0           0           0           0           0           0           0           0
                0           0           0           0           0           0           0           0           0           0
   2            0           0           0           0           0           0           0           0           0           0
                0           0           0           0           0           0           0           0           0           0
                0           0           0           0           0           0           0           0           0           0
                0           0           0           0           0           0           0           0           0           0
                0           0           0           0           0           0           0           0           0           0
                0           0           0           0           0           0           0           0           0           0
                0           0           0           0           0           0           0           0           0           0
                0           0           0           0           0           0           0           0           0           0
                0           0           0           0           0           0           0           0           0           0
                0           0           0           0           0           0           0           0           0           0
   3            0           0           0           0           0           0           0           0           0           0
                0           0           0           0           0           0           0           0           0           0
                0           0           0           0           0           0           0           0           0           0
                0           0           0           0           0           0           0           0           0           0
                0           0           0           0           0           0           0           0           0           0
                0           0           0           0           0           0           0           0           0           0
                0           0           0           0           0           0           0           0           0           0
                0           0           0           0           0           0           0           0           0           0
                0           0           0           0           0           0           0           0           0           0
                0           0           0           0           0           0           0           0           0           0
   4            0           0           0           0           0           0           0           0           0           0
                0           0           0           0           0           0           0           0           0           0
                0           0           0           0           0           0           0           0           0           0
                0           0           0           0           0           0           0           0           0           0
                0           0           0           0           0           0           0           0           0           0
                0           0           0           0           0           0           0           0           0           0
                0           0           0           0           0           0           0           0           0           0
                0           0           0           0           0           0           0           0           0           0
                0           0           0           0           0           0           0           0           0           0
                0           0           0           0           0           0           0           0           0           0
   5            0           0           0           0           0           0           0           0           0           0
                0           0           0           0           0           0           0           0           0           0
                0           0           0           0           0           0           0           0           0           0
                0           0           0           0           0           0           0           0           0           0
                0           0           0           0           0           0           0           0           0           0
                0           0           0           0           0           0           0           0           0           0
                0           0           0           0           0           0           0           0           0           0
                0           0           0           0           0           0           0           0           0           0
                0           0           0           0           0           0           0           0           0           0
                0           0           0           0           0           0           0           0           0           0
   6            0           0           0           0           0           0           0           0           0           0
                0           0           0           0           0           0           0           0           0           0
                0           0           0           0           0           0           0           0           0           0
                0           0           0           0           0           0           0           0           0           0
                0           0           0           0           0           0           0           0           0           0
                0           0           0           0           0           0           0           0           0           0
                0           0           0           0           0           0           0           0           0           0
                0           0           0           0           0           0           0           0           0           0
                0           0           0           0           0           0           0           0           0           0
                0           0           0           0           0           0           0           0           0           0
   7            0           0           0           0           0           0           0           0           0           0
                0           0           0           0           0           0           0           0           0           0
                0           0           0           0           0           0           0           0           0           0
                0           0           0           0           0           0           0           0           0           0
                0           0           0           0           0           0           0           0           0           0
                0           0           0           0           0           0           0           0           0           0
                0           0           0           0           0           0           0           0           0           0
                0           0           0           0           0           0           0           0           0           0
                0           0           0           0           0           0           0           0           0           0
                0           0           0           0           0           0           0           0           0           0
   8            0           0           0           0           0           0           0           0           0           0
                0           0           0           0           0           0           0           0           0           0
                0           0           0           0           0           0           0           0           0           0
                0           0           0           0           0           0           0           0           0           0
                0           0           0           0           0           0           0           0           0           0
                0           0           0           0           0           0           0           0           0           0
                0           0           0           0           0           0           0           0           0           0
                0           0           0           0           0           0           0           0           0           0
                0           0           0           0           0           0           0           0           0           0
                0           0           0           0           0           0           0           0           0           0
   9            0           0           0           0           0           0           0           0           0           0
                0           0           0           0           0           0           0           0           0           0
                0           0           0           0           0           0           0           0           0           0
                0           0           0           0           0           0           0           0           0           0
                0           0           0           0           0           0           0           0           0           0
                0           0           0           0           0           0           0           0           0           0
                0           0           0           0           0           0           0           0           0           0
                0           0           0           0           0           0           0           0           0           0
                0           0           0           0           0           0           0           0           0           0
                0           0           0           0           0           0           0           0           0           0
  10            0           0           0           0           0           0           0           0           0           0
                0           0           0           0           0           0           0           0           0           0
                0           0           0           0           0           0           0           0           0           0
                0           0           0           0           0           0           0           0           0           0
                0           0           0           0           0           0           0           0           0           0
                0           0           0           0           0           0           0           0           0           0
                0           0           0           0           0           0           0           0           0           0
                0           0           0           0           0           0           0           0           0           0
                0           0           0           0           0           0           0           0           0           0
                0           0           0           0           0           0           0           0           0           0
  11            0           0           0           0           0           0           0           0           0           0
                0           0           0           0           0           0           0           0           0           0
                0           0           0           0           0           0           0           0           0           0
                0           0           0           0           0           0           0           0           0           0
                0           0           0           0           0           0           0           0           0           0
                0           0           0           0           0           0           0           0           0          -1
               -1           0           0           0           0           0           0           0           0           0
                0           0           0           0           0           0           0           0           0           0
                0           0           0           0           0           0           0           0           0           0
                0           0           0           0           0           0           0           0           0           0
  12            0           0           0           0           0           0           0           0           0           0
                0           0           0           0           0           0           0           0           0           0
                0           0           0           0           0           0           0           0           0           0
                0           0           0           0           0           0           0           0           0           0
                0           0           0           0           0           0           0           0           0           0
                0           0           0           0           0           0           0           0          -1          -1
               -1           0           0           0           0           0           0           0           0           0
                0           0           0           0           0           0           0           0           0           0
                0           0           0           0           0           0           0           0           0           0
                0           0           0           0           0           0           0           0           0           0
  13            0           0           0           0           0           0           0           0           0           0
                0           0           0           0           0           0           0           0           0           0
                0           0           0           0           0           0           0           0           0           0
                0           0           0           0           0           0           0           0           0           0
                0           0           0           0           0           0           0           0           0           0
                0           0           0           0           0           0           0           0          -1           1
               -1           0           0           0           0           0           0           0           0           0
                0           0           0           0           0           0           0           0           0           0
                0           0           0           0           0           0           0           0           0           0
                0           0           0           0           0           0           0           0           0           0
  14            0           0           0           0           0           0           0           0           0           0
                0           0           0           0           0           0           0           0           0           0
                0           0           0           0           0           0           0           0           0           0
                0           0           0           0           0           0           0           0           0           0
                0           0           0           0           0           0           0           0           0           0
                0           0           0           0           0           0          -1          -1          -1          -1
               -1           0           0           0           0           0           0           0           0           0
                0           0           0           0           0           0           0           0           0           0
                0           0           0           0           0           0           0           0           0           0
                0           0           0           0           0           0           0           0           0           0
  15            0           0           0           0           0           0           0           0           0           0
                0           0           0           0           0           0           0           0           0           0
                0           0           0           0           0           0           0           0           0           0
                0           0           0           0           0           0           0           0           0           0
                0           0           0           0           0           0           0           0           0           0
                0           0           0           0           0           0          -1          -1           1          -1
                0           0           0          -1           0           0           0           0           0           0
                0           0           0           0           0           0           0           0           0           0
                0           0           0           0           0           0           0           0           0           0
                0           0           0           0          -1          -1           0           0           0           0
  16            0           0           0           0           0           0           0           0           0           0
                0           0           0           0           0           0           0           0           0           0
                0           0           0           0           0           0           0           0           0           0
                0           0           0           0           0           0           0           0           0           0
                0           0           0           0           0           0           0           0           0           0
                0           0           0           0          -1          -1          -1           1          -1          -1
                0          -1          -1          -1           0           0           0           0           0           0
               -1          -1          -1           0           0           0           0           0           0           0
                0           0           0           0           0           0           0           0           0           0
               -1           0           0          -1          -1          -1           0           0           0           0
  17            0           0           0           0           0           0           0           0           0           0
                0           0           0           0           0           0           0           0           0           0
                0           0           0           0           0           0           0           0           0           0
                0           0           0           0           0           0           0           0           0           0
                0           0           0           0           0           0           0           0           0           0
                0           0           0           0          -1          -1          -1           1          -1           0
               -1          -1          -1          -1           0          -1          -1           0          -1           0
               -1          -1          -1          -1          -1           0           0           0           0           0
                0           0           0           0           0           0           0           0           0          -1
               -1          -1          -1          -1          -1           0           0           0           0           0
  18            0           0           0           0           0           0           0           0           0           0
                0           0           0           0           0           0           0           0           0           0
                0           0           0           0           0           0           0           0           0           0
                0           0           0           0           0           0           0           0           0           0
                0           0           0           0           0           0           0           0           0           0
                0           0           0           0          -1           1           1           1          -1          -1
               -1           1           1          -1          -1          -1          -1           0          -1          -1
               -1          -1          -1          -1          -1           0           0           0           0           0
                0           0           0           0           0           0           0           0           0          -1
                1           1           1           1          -1           0           0           0           0           0
  19            0           0           0           0           0           0           0           0           0           0
                0           0           0           0           0           0           0           0           0           0
                0           0           0           0           0           0           0           0           0           0
                0           0           0           0           0           0           0           0           0           0
                0           0           0           0           0           0           0           0           0           0
                0           0          -1          -1          -1           1           1           1           1          -1
               -1           1           1          -1          -1          -1          -1           0          -1          -1
               -1           1          -1          -1          -1           0           0           0          -1           0
                0           0           0           0           0           0           0          -1          -1          -1
                1           1           1           1          -1           0           0           0           0           0
  20            0           0           0           0           0           0           0           0           0           0
                0           0           0           0           0           0           0           0           0           0
                0           0           0           0           0           0           0           0           0           0
                0           0           0           0           0           0           0           0           0           0
                0           0           0           0           0           0           0           0           0           0
               -1          -1          -1          -1          -1           1           1           1           1           1
                1           1           1           1          -1          -1           0           0          -1          -1
               -1           1           1          -1          -1           0           0           0          -1           0
                0          -1           0           0           0           0           0          -1           1           1
                1           1           1           1          -1           0           0           0           0           0
  21            0           0           0           0           0           0           0           0           0           0
                0           0           0           0           0           0           0           0           0           0
                0           0           0           0           0           0           0           0           0           0
                0           0           0           0           0           0           0           0           0           0
                0           0           0           0           0           0           0           0           0           0
               -1          -1           1          -1          -1           1           1           1           1           1
                1           1           1           1           1          -1           0          -1          -1           1
                1           1          -1          -1           0           0          -1          -1          -1          -1
               -1          -1          -1          -1           0           0           0          -1           1           1
                1           1           1           1          -1           0           0           0           0           0
  22            0           0           0           0           0           0           0           0           0           0
                0           0           0           0           0           0           0           0           0           0
                0           0           0           0           0           0           0           0           0           0
                0           0           0           0           0           0           0           0           0           0
                0           0           0           0           0           0           0           0           0          -1
               -1           1           1           1           1           1           1           1           1           1
                1           1           1           1           1          -1          -1          -1          -1           1
                1           1          -1          -1           0          -1          -1           1           1          -1
               -1          -1          -1          -1          -1           0           0          -1           1           1
                1           1           1           1          -1          -1           0           0           0           0
  23            0           0           0           0           0           0           0           0           0           0
                0           0           0           0           0           0           0           0           0           0
                0           0           0           0           0           0           0           0           0           0
                0           0           0           0           0           0           0           0           0           0
                0           0           0           0           0           0           0           0           0          -1
               -1           1           1           1           1           1           1           1           1           1
                1           1           1           1           1          -1          -1           1           1           1
                1           1           1          -1          -1          -1          -1           1           1           1
               -1          -1           1           1          -1          -1           0          -1           1           1
                1           1           1           1           1          -1           0           0           0           0
  24            0           0           0           0           0           0           0           0           0           0
                0           0           0           0           0           0           0           0           0           0
                0           0           0           0           0           0           0           0           0           0
                0           0           0           0           0           0           0           0           0           0
                0           0           0           0           0           0           0           0           0          -1
               -1           1           1           1           1           1           1           1           1           1
                1           1           1           1           1           1           1           1           1           1
                1           1           1           1           1           1           1           1           1           1
                1          -1           1           1           1          -1           0          -1           1           1
                1           1           1           1           1          -1           0           0           0           0
  25            0           0           0           0           0           0           0           0           0           0
                0           0           0           0           0           0           0           0           0           0
                0           0           0           0           0           0           0           0           0           0
                0           0           0           0           0           0           0           0           0           0
                0           0           0           0           0           0          -1          -1          -1          -1
                1           1           1           1           1           1           1           1           1           1
                1           1           1           1           1           1           1           1           1           1
                1           1           1           1           1           1           1           1           1           1
                1           1           1           1           1          -1          -1          -1           1           1
                1           1           1           1          -1          -1           0           0           0           0
  26            0           0           0           0           0           0           0           0           0           0
                0           0           0           0           0           0           0           0           0           0
                0           0           0           0           0           0           0           0           0           0
                0           0           0           0           0           0           0           0           0           0
                0           0           0           0           0           0          -1          -1          -1          -1
                1           1           1           1           1           1           1           1           1           1
                1           1           1           1           1           1           1           1           1           1
                1           1           1           1           1           1           1           1           1           1
                1           1           1           1           1          -1          -1           1           1           1
                1           1           1           1          -1           0           0           0           0           0
  27            0           0           0           0           0           0           0           0           0           0
                0           0           0           0           0           0           0           0           0           0
                0           0           0           0           0           0           0           0           0           0
                0           0           0           0           0           0           0           0           0           0
                0           0           0           0           0           0          -1          -1           1           1
                1           1           1           1           1           1           1           1           1           1
                1           1           1           1           1           1           1           1           1           1
                1           1           1           1           1           1           1           1           1           1
                1           1           1           1           1           1           1           1           1           1
                1           1           1           1          -1           0           0           0           0           0
  28            0           0           0           0           0           0           0           0           0           0
                0           0           0           0           0           0           0           0           0           0
                0           0           0           0           0           0           0           0           0           0
                0           0           0           0           0           0           0           0           0           0
                0           0           0           0           0          -1          -1           1           1           1
                1           1           1           1           1           1           1           1           1           1
                1           1           1           1           1           1           1           1           1           1
                1           1           1           1           1           1           1           1           1           1
                1           1           1           1           1           1           1           1           1           1
                1           1           1           1          -1           0           0           0           0           0
  29            0           0           0           0           0           0           0           0           0           0
                0           0           0           0           0           0           0           0           0           0
                0           0           0           0           0           0           0           0           0           0
                0           0           0           0           0           0           0           0           0           0
                0           0           0           0           0          -1           1           1           1           1
                1           1           1           1           1           1          -1          -1          -1           1
                1           1           1           1           1           1           1           1           1           1
                1           1           1           1           1           1           1           1          -1          -1
                1           1           1           1           1           1           1           1           1           1
                1           1           1           1          -1           0           0           0           0           0
  30            0           0           0           0           0           0           0           0           0           0
                0           0           0           0           0           0           0           0           0           0
                0           0           0           0           0           0           0           0           0           0
                0           0           0           0           0           0           0           0           0           0
                0           0           0           0           0          -1           1           1           1           1
                1           1           1           1           1          -1          -1          -1          -1          -1
               -1          -1           1           1           1           1           1           1           1           1
                1           1           1           1           1           1           1          -1          -1          -1
               -1           1           1           1           1           1           1           1           1           1
                1           1           1           1          -1           0           0           0           0           0
  31            0           0           0           0           0           0           0           0           0           0
                0           0           0           0           0           0           0           0           0           0
                0           0           0           0           0           0           0           0           0           0
                0           0           0           0           0           0           0           0           0           0
                0           0           0           0          -1          -1           1           1           1           1
                1          -1          -1          -1           1          -1           0           0           0           0
               -1          -1          -1           1           1           1           1           1           1           1
                1           1           1           1           1           1          -1          -1           0          -1
               -1           1           1           1           1           1           1           1           1           1
                1          -1          -1          -1          -1           0           0           0           0           0
  32            0           0           0           0           0           0           0           0           0           0
                0           0           0           0           0           0           0           0           0           0
                0           0           0           0           0           0           0           0           0           0
                0           0           0           0           0           0           0           0           0           0
                0           0           0          -1          -1           1           1           1           1           1
               -1          -1           0          -1          -1          -1           0           0           0           0
                0           0          -1           1           1           1           1           1           1           1
                1           1           1           1           1          -1          -1           0           0           0
               -1          -1           1           1           1           1           1           1           1           1
               -1          -1          -1          -1           0           0           0           0           0           0
  33            0           0           0           0           0           0           0           0           0           0
                0           0           0           0           0           0           0           0           0           0
                0           0           0           0           0           0           0           0           0           0
                0           0           0           0           0           0           0           0           0           0
                0           0           0          -1          -1           1           1           1           1           1
               -1          -1          -1          -1           0           0           0           0           0           0
                0           0          -1           1           1           1           1           1           1           1
                1           1           1           1           1          -1           0           0           0           0
                0          -1           1           1           1           1           1          -1          -1          -1
               -1           0           0           0           0           0           0           0           0           0
  34            0           0           0           0           0           0           0           0           0           0
                0           0           0           0           0           0           0           0           0           0
                0           0           0           0           0           0           0           0           0           0
                0           0           0           0           0           0           0           0           0           0
                0           0           0          -1           1           1           1           1           1           1
                1           1          -1          -1           0           0          -1           0           0           0
                0          -1          -1           1           1           1           1           1           1           1
                1           1           1           1          -1          -1           0           0           0           0
                0          -1           1           1           1           1           1          -1           0          -1
               -1           0           0           0           0           0           0           0           0           0
  35            0           0           0           0           0           0           0           0           0           0
                0           0           0           0           0           0           0           0           0           0
                0           0           0           0           0           0           0           0           0           0
                0           0           0           0           0           0           0           0           0           0
                0           0           0          -1           1           1           1           1           1           1
                1           1           1          -1          -1          -1          -1          -1           0           0
                0           0          -1           1           1           1           1           1           1           1
                1           1           1           1          -1           0           0           0           0           0
                0          -1           1           1           1           1          -1          -1           0           0
                0           0           0           0           0           0           0           0           0           0
  36            0           0           0           0           0           0           0           0           0           0
                0           0           0           0           0           0           0           0           0           0
                0           0           0           0           0           0           0           0           0           0
                0           0           0           0           0           0           0           0           0           0
                0           0           0          -1           1           1           1           1           1           1
                1           1           1           1           1           1          -1           0           0           0
                0           0          -1           1           1           1           1           1           1           1
                1           1           1          -1          -1           0           0           0           0           0
                0          -1           1           1           1           1          -1           0           0           0
                0           0           0           0           0           0           0           0           0           0
  37            0           0           0           0           0           0           0           0           0           0
                0           0           0           0           0           0           0           0           0           0
                0           0           0           0           0           0           0           0           0           0
                0           0           0           0           0           0           0           0           0           0
                0           0           0          -1           1           1           1           1           1           1
                1           1           1           1           1           1          -1           0           0           0
                0           0          -1           1           1           1           1           1           1           1
               -1          -1          -1          -1           0           0           0           0           0           0
               -1          -1           1           1          -1          -1          -1           0           0           0
                0           0           0           0           0           0           0           0           0           0
  38            0           0           0           0           0           0           0           0           0           0
                0           0           0           0           0           0           0           0           0           0
                0           0           0           0           0           0           0           0           0           0
                0           0           0           0           0           0           0           0           0           0
               -1          -1           0          -1           1           1           1           1           1           1
                1           1           1           1           1           1          -1           0           0           0
                0           0          -1           1           1           1           1           1           1           1
               -1          -1          -1          -1           0           0           0           0           0           0
                0          -1           1          -1          -1           0           0           0           0           0
                0           0           0           0           0           0           0           0           0           0
  39            0           0           0           0           0           0           0           0           0           0
                0           0           0           0           0           0           0           0           0           0
                0           0           0           0           0           0           0           0           0           0
                0           0           0           0           0           0           0           0           0           0
               -1          -1          -1          -1          -1           1           1           1           1           1
                1           1           1           1           1           1          -1          -1          -1           0
                0           0          -1           1           1           1           1           1           1           1
               -1           0           0           0           0           0           0           0           0           0
                0          -1          -1          -1           0           0           0           0           0           0
                0           0           0           0           0           0           0           0           0           0
  40            0           0           0           0           0           0           0           0           0           0
                0           0           0           0           0           0           0           0           0           0
                0           0           0           0           0           0           0           0           0           0
                0           0           0           0           0           0           0           0           0          -1
               -1           1          -1           0          -1           1           1           1           1           1
                1           1           1           1           1           1           1           1          -1           0
                0           0          -1           1           1           1           1           1           1           1
               -1           0           0           0           0           0           0           0           0           0
                0           0          -1           0           0           0           0           0           0           0
                0           0           0           0           0           0           0           0           0           0
  41            0           0           0           0           0           0           0           0           0           0
                0           0           0           0           0           0           0           0           0           0
                0           0           0           0          -1           0           0           0           0           0
                0          -1           0           0           0           0           0           0          -1          -1
                1           1          -1          -1          -1           1           1           1           1           1
                1           1           1           1           1           1           1           1          -1           0
                0           0          -1           1           1           1           1           1          -1          -1
               -1           0           0           0           0           0           0           0           0           0
                0           0           0           0           0           0           0           0           0           0
                0           0           0           0           0           0           0           0           0           0
  42            0           0           0           0           0           0           0           0           0           0
                0           0           0           0           0           0           0           0           0           0
                0           0           0          -1          -1           0           0           0           0          -1
               -1          -1           0           0           0           0           0           0          -1           1
                1           1          -1          -1           1           1           1           1           1           1
                1           1           1           1           1           1           1          -1          -1           0
                0           0          -1           1           1          -1          -1          -1          -1           0
                0           0           0           0           0           0           0           0           0           0
                0           0           0           0           0           0           0           0           0           0
                0           0           0           0           0           0           0           0           0           0
  43            0           0           0           0           0           0           0           0           0           0
                0           0           0           0           0           0           0           0           0          -1
                0          -1          -1          -1          -1           0           0           0          -1          -1
               -1          -1           0           0           0           0           0          -1          -1           1
                1           1           1           1           1           1           1           1           1           1
                1           1           1           1           1           1          -1          -1           0           0
                0           0          -1          -1          -1          -1          -1           0           0           0
                0           0           0           0           0           0           0           0           0           0
                0           0           0           0           0           0           0           0           0           0
                0           0           0           0           0           0           0           0           0           0
  44            0           0           0           0           0           0           0           0           0           0
                0           0           0           0           0           0           0          -1          -1          -1
               -1          -1          -1           1          -1          -1          -1          -1          -1           1
                1          -1          -1          -1           0          -1          -1          -1          -1           1
                1           1           1           1           1           1           1           1           1           1
                1           1           1           1           1           1          -1           0           0           0
                0           0          -1           0           0           0           0           0           0           0
                0           0           0           0           0           0           0           0           0           0
                0           0           0           0           0           0           0           0           0           0
                0           0           0           0           0           0           0           0           0           0
  45            0           0           0           0           0           0           0           0           0           0
                0           0           0           0           0          -1          -1          -1          -1           1
               -1          -1           1           1          -1          -1          -1          -1           1           1
                1          -1          -1          -1          -1          -1          -1           1           1           1
                1           1           1           1           1           1           1           1           1           1
                1           1           1           1           1           1          -1          -1           0           0
                0           0           0           0           0           0           0           0           0           0
                0           0           0           0           0           0           0           0           0           0
                0           0           0           0           0           0           0           0           0           0
                0           0           0           0           0           0           0           0           0           0
  46            0           0           0           0           0           0           0           0           0           0
                0           0           0           0           0          -1          -1           1           1           1
                1           1           1           1          -1          -1           1           1           1           1
                1           1           1          -1          -1           1           1           1           1           1
                1           1           1           1           1           1           1           1           1           1
                1           1           1           1           1           1           1          -1          -1           0
                0           0           0           0           0           0           0           0           0           0
                0           0           0           0           0           0           0           0           0           0
                0           0           0           0           0           0           0           0           0           0
                0           0           0           0           0           0           0           0           0           0
  47            0           0           0           0           0           0           0           0           0           0
                0           0           0           0           0          -1          -1           1           1           1
                1           1           1           1           1           1           1           1           1           1
                1           1           1          -1          -1           1           1           1           1           1
                1           1           1           1           1           1           1           1           1           1
                1           1           1           1           1           1           1           1          -1           0
                0           0           0           0           0           0           0           0           0           0
                0           0           0           0           0           0           0           0           0           0
                0           0           0           0           0           0           0           0           0           0
                0           0           0           0           0           0           0           0           0           0
  48            0           0           0           0           0           0           0           0           0           0
                0           0           0           0           0          -1           1           1           1           1
                1           1           1           1           1           1           1           1           1           1
                1           1           1           1           1           1           1           1           1           1
                1           1           1           1           1           1           1           1           1           1
                1           1           1           1           1           1           1          -1          -1           0
                0           0           0           0           0           0           0           0           0           0
                0           0           0           0           0           0           0           0           0           0
                0           0           0           0           0           0           0           0           0           0
                0           0           0           0           0           0           0           0           0           0
  49            0           0           0           0           0           0           0           0           0           0
                0           0          -1           0          -1          -1           1           1           1           1
                1           1           1           1           1           1           1           1           1           1
                1           1           1           1           1           1           1           1           1           1
                1           1           1           1           1           1           1           1           1           1
                1           1           1           1           1          -1          -1          -1           0           0
                0           0           0           0           0           0           0           0           0           0
                0           0           0           0           0           0           0           0           0           0
                0           0           0           0           0           0           0           0           0           0
                0           0           0           0           0           0           0           0           0           0
  50            0           0           0           0           0           0           0           0           0           0
                0          -1          -1          -1          -1           1           1           1           1           1
                1           1           1           1           1           1           1           1           1           1
                1           1           1           1           1           1           1           1           1           1
                1           1           1           1           1           1           1           1           1           1
                1           1           1           1          -1          -1           0          -1           0           0
                0           0           0           0           0           0           0           0           0           0
                0           0           0           0           0           0           0           0           0           0
                0           0           0           0           0           0           0           0           0           0
                0           0           0           0           0           0           0           0           0           0
  51            0           0           0           0           0           0           0           0           0           0
               -1          -1          -1          -1           1           1           1           1           1           1
                1           1           1           1           1           1           1           1           1           1
                1           1           1           1           1           1           1           1           1           1
                1           1           1           1           1           1           1           1           1           1
                1           1           1           1          -1           0           0           0           0           0
                0           0           0           0           0           0           0           0           0           0
                0           0           0           0           0           0           0           0           0           0
                0           0           0           0           0           0           0           0           0           0
                0           0           0           0           0           0           0           0           0           0
  52            0           0           0           0           0           0           0           0           0           0
               -1          -1          -1          -1           1           1           1           1           1           1
                1           1           1           1           1           1           1           1           1           1
                1           1           1           1           1           1           1           1           1           1
                1           1           1           1           1           1           1           1           1           1
                1           1           1           1          -1           0           0           0           0           0
                0           0           0           0           0           0           0           0           0           0
                0           0           0           0           0           0           0           0           0           0
                0           0           0           0           0           0           0           0           0           0
                0           0           0           0           0           0           0           0           0           0
  53            0           0           0           0           0           0           0           0           0           0
               -1           1           1           1           1           1           1           1           1           1
                1           1           1           1           1           1           1           1           1           1
                1           1           1           1           1           1           1           1           1           1
                1           1           1           1           1           1           1           1           1           1
                1           1           1          -1          -1           0           0           0           0           0
                0           0           0           0           0           0           0           0           0           0
                0           0           0           0           0           0           0           0           0           0
                0           0           0           0           0           0           0           0           0           0
                0           0           0           0           0           0           0           0           0           0
  54            0           0           0           0           0           0           0           0           0          -1
               -1           1           1           1           1           1           1           1           1           1
                1           1           1           1           1           1           1           1           1           1
                1           1           1           1           1           1           1           1           1           1
                1           1           1           1           1           1           1           1           1           1
                1           1          -1          -1           0           0           0           0           0           0
                0           0           0           0           0           0           0           0           0           0
                0           0           0           0           0           0           0           0           0           0
                0           0           0           0           0           0           0           0           0           0
                0           0           0           0           0           0           0           0           0           0
  55            0           0           0           0           0           0           0           0          -1          -1
                1           1           1           1           1           1           1           1           1           1
                1           1           1           1           1           1           1           1           1           1
                1           1           1           1           1           1           1           1           1           1
                1           1           1           1           1           1           1           1           1           1
                1           1          -1           0           0           0           0           0           0           0
                0           0           0           0           0           0           0           0           0           0
                0           0           0           0           0           0           0           0           0           0
                0           0           0           0           0           0           0           0           0           0
                0           0           0           0           0           0           0           0           0           0
  56            0           0           0           0           0           0           0           0          -1           1
                1           1           1           1           1           1           1           1           1           1
                1           1           1           1           1           1           1           1           1           1
                1           1           1           1           1           1           1           1           1           1
                1           1           1           1           1           1           1           1          -1           1
                1          -1          -1           0           0           0           0           0           0           0
                0           0           0           0           0           0           0           0           0           0
                0           0           0           0           0           0           0           0           0           0
                0           0           0           0           0           0           0           0           0           0
                0           0           0           0           0           0           0           0           0           0
  57            0           0           0           0           0           0           0           0          -1           1
                1           1           1           1           1           1           1           1           1           1
                1           1           1           1           1           1           1           1           1           1
                1           1           1           1           1           1           1           1           1           1
                1           1           1           1           1           1           1           1          -1          -1
                1          -1           0           0           0           0           0           0           0           0
                0           0           0           0           0           0           0           0           0           0
                0           0           0           0           0           0           0           0           0           0
                0           0           0           0           0           0           0           0           0           0
                0           0           0           0           0           0           0           0           0           0
  58            0           0           0           0           0           0           0           0          -1           1
                1           1           1           1           1           1           1           1           1           1
                1           1           1           1           1           1           1           1           1           1
                1           1           1           1           1           1           1           1           1           1
                1           1           1           1           1           1          -1          -1          -1          -1
               -1          -1           0           0           0           0           0           0           0           0
                0           0           0           0           0           0           0           0           0           0
                0           0           0           0           0           0           0           0           0           0
                0           0           0           0           0           0           0           0           0           0
                0           0           0           0           0           0           0           0           0           0
  59            0           0           0           0           0           0           0          -1          -1           1
                1           1           1           1           1           1           1           1           1           1
                1           1           1           1           1           1           1           1           1           1
                1           1           1           1           1           1           1           1           1           1
                1           1           1           1           1           1          -1          -1           0           0
               -1          -1           0           0           0           0           0           0           0           0
                0           0           0           0           0           0           0           0           0           0
                0           0           0           0           0           0           0           0           0           0
                0           0           0           0           0           0           0           0           0           0
                0           0           0           0           0           0           0           0           0           0
  60            0           0           0           0           0           0           0          -1           1           1
                1           1           1           1           1           1           1           1           1           1
                1           1           1           1           1           1           1           1           1           1
                1           1           1           1           1           1           1           1           1           1
                1           1           1           1           1          -1          -1          -1           0           0
               -1           0           0           0           0           0           0           0           0           0
                0           0           0           0           0           0           0           0           0           0
                0           0           0           0           0           0           0           0           0           0
                0           0           0           0           0           0           0           0           0           0
                0           0           0           0           0           0           0           0           0           0
  61            0           0           0           0           0           0           0          -1           1           1
                1           1           1           1           1           1           1           1           1           1
                1           1           1           1           1           1           1           1           1           1
                1           1           1           1           1           1           1           1           1           1
                1           1           1           1           1          -1          -1           0           0          -1
               -1           0           0           0           0           0           0           0           0           0
                0           0           0           0           0           0           0           0           0           0
                0           0           0           0           0           0           0           0           0           0
                0           0           0           0           0           0           0           0           0           0
                0           0           0           0           0           0           0           0           0           0
[...]
                0           0           0           0           0           0           0           0           0           0
                0           0           0           0           0           0           0           0           0           0
                0          -1          -1           0           0           0           0           0           0           0
                0           0           0           0           0           0           0           0           0           0
                0           0           0           0           0           0           0           0           0           0
                0           0           0           0           0           0           0           0           0           0
                0           0           0           0           0           0           0           0           0           0
                0           0           0           0           0           0           0           0           0           0
                0           0           0           0           0           0           0           0           0           0
  97            0           0           0           0           0           0           0           0           0           0
                0           0           0           0           0           0           0           0           0           0
                0           0           0           0           0           0           0           0           0           0
                0           0           0           0           0           0           0           0           0           0
                0           0           0           0           0           0           0           0           0           0
                0           0           0           0           0           0           0           0           0           0
                0           0           0           0           0           0           0           0           0           0
                0           0           0           0           0           0           0           0           0           0
                0           0           0           0           0           0           0           0           0           0
                0           0           0           0           0           0           0           0           0           0
  98            0           0           0           0           0           0           0           0           0           0
                0           0           0           0           0           0           0           0           0           0
                0           0           0           0           0           0           0           0           0           0
                0           0           0           0           0           0           0           0           0           0
                0           0           0           0           0           0           0           0           0           0
                0           0           0           0           0           0           0           0           0           0
                0           0           0           0           0           0           0           0           0           0
                0           0           0           0           0           0           0           0           0           0
                0           0           0           0           0           0           0           0           0           0
                0           0           0           0           0           0           0           0           0           0
  99            0           0           0           0           0           0           0           0           0           0
                0           0           0           0           0           0           0           0           0           0
                0           0           0           0           0           0           0           0           0           0
                0           0           0           0           0           0           0           0           0           0
                0           0           0           0           0           0           0           0           0           0
                0           0           0           0           0           0           0           0           0           0
                0           0           0           0           0           0           0           0           0           0
                0           0           0           0           0           0           0           0           0           0
                0           0           0           0           0           0           0           0           0           0
                0           0           0           0           0           0           0           0           0           0
 100            0           0           0           0           0           0           0           0           0           0
                0           0           0           0           0           0           0           0           0           0
                0           0           0           0           0           0           0           0           0           0
                0           0           0           0           0           0           0           0           0           0
                0           0           0           0           0           0           0           0           0           0
                0           0           0           0           0           0           0           0           0           0
                0           0           0           0           0           0           0           0           0           0
                0           0           0           0           0           0           0           0           0           0
                0           0           0           0           0           0           0           0           0           0
                0           0           0           0           0           0           0           0           0           0

 AQUIFER HEAD WILL BE SET TO -999.00     AT ALL NO-FLOW NODES (IBOUND=0).

 OUTPUT CONTROL IS SPECIFIED ONLY AT TIME STEPS FOR WHICH OUTPUT IS DESIRED
 COMPACT CELL-BY-CELL BUDGET FILES WILL BE WRITTEN
 AUXILIARY DATA WILL BE SAVED IN CELL-BY-CELL BUDGET FILES
 HEAD PRINT FORMAT CODE IS   0    DRAWDOWN PRINT FORMAT CODE IS   0
 HEADS WILL BE SAVED ON UNIT    3    DRAWDOWNS WILL BE SAVED ON UNIT    0
1
                            STRESS PERIOD NO.    1, LENGTH =   1.000000    
                            -----------------------------------------------

                              NUMBER OF TIME STEPS =     1

                               MULTIPLIER FOR DELT =     1.000

                            INITIAL TIME STEP SIZE =   1.000000    

 WELL NO.  LAYER   ROW   COL   STRESS RATE         IFACE           QFACT           CELLGRP         
 --------------------------------------------------------------------------------------------------
      1      1     56     28      -1000.           0.000           1.000           1.000    
      2      1     55     29      -1000.           0.000           1.000           2.000    
      3      1     66     36      -1000.           0.000           1.000           3.000    
      4      1     66     40      -1000.           0.000           1.000           4.000    
      5      1     65     41      -1000.           0.000           1.000           5.000    
      6      1     65     41      -1000.           0.000           1.000           6.000    
      7      1     65     41      -1000.           0.000           1.000           7.000    
      8      1     65     41      -1000.           0.000           1.000           8.000    
      9      1     64     41      -1000.           0.000           1.000           9.000    
     10      1     63     41      -1000.           0.000           1.000           10.00    
     11      1     62     41      -1000.           0.000           1.000           11.00    
     12      1     61     39      -1000.           0.000           1.000           12.00    
     13      1     61     39      -1000.           0.000           1.000           13.00    
     14      1     79     36      -1000.           0.000           1.000           14.00    
     15      1     79     36      -1000.           0.000           1.000           15.00    
     16      1     79     36      -1000.           0.000           1.000           16.00    
     17      1     78     38      -1000.           0.000           1.000           17.00    
     18      1     70     28      -1000.           0.000           1.000           18.00    
     19      1     71     29      -1000.           0.000           1.000           19.00    
     20      1     72     29      -1000.           0.000           1.000           20.00    
     21      1     74     28      -1000.           0.000           1.000           21.00    
     22      1     74     27      -1000.           0.000           1.000           22.00    
     23      1     76     30      -1000.           0.000           1.000           23.00    
     24      1     76     30      -1000.           0.000           1.000           24.00    
     25      1     77     30      -1000.           0.000           1.000           25.00    
     26      1     78     30      -1000.           0.000           1.000           26.00    
     27      1     61     39      -1000.           0.000           1.000           27.00    
     28      1     33     49      -1000.           0.000           1.000           28.00    
     29      1     35     50      -1000.           0.000           1.000           29.00    
     30      1     36     50      -1000.           0.000           1.000           30.00    
     31      1     37     49      -1000.           0.000           1.000           31.00    
     32      1     37     53      -1000.           0.000           1.000           32.00    
     33      1     30     64      -1000.           0.000           1.000           33.00    
     34      1     29     64      -1000.           0.000           1.000           34.00    
     35      1     29     78      -1000.           0.000           1.000           35.00    
     36      1     19     94      -1000.           0.000           1.000           36.00    
     37      1     20     93      -1000.           0.000           1.000           37.00    
     38      1     27     88      -1000.           0.000           1.000           38.00    
     39      1     44     43      -1000.           0.000           1.000           39.00    
     40      1     45     43      -1000.           0.000           1.000           40.00    
     41      1     66     40      -1000.           0.000           1.000           41.00    
     42      1     30     64      -1000.           0.000           1.000           42.00    
     43      1     37     53      -1000.           0.000           1.000           43.00    
     44      1     76     36      -1000.           0.000           1.000           44.00    
     45      1     21     61      -1000.           0.000           1.000           45.00    
     46      1     71     38      -1000.           0.000           1.000           46.00    
     47      1     29     67      -1000.           0.000           1.000           47.00    
     48      1     29     67      -1000.           0.000           1.000           48.00    
     49      1     72     37      -1000.           0.000           1.000           49.00    
     50      1     56     11      -1000.           0.000           1.000           50.00    
     51      1     56     11      -1000.           0.000           1.000           51.00    
     52      1     28     88      -1000.           0.000           1.000           52.00    
     53      1     72     35      -1000.           0.000           1.000           53.00    
     54      1     21     62      -1000.           0.000           1.000           54.00    
     55      1     72     34      -1000.           0.000           1.000           55.00    
     56      1     19     94      -1000.           0.000           1.000           56.00    
     57      1     26     94      -1000.           0.000           1.000           57.00    
     58      1     26     94      -1000.           0.000           1.000           58.00    
     59      1     24     72      -1000.           0.000           1.000           59.00    
     60      1     25     72      -1000.           0.000           1.000           60.00    
     61      1     44     55      -1000.           0.000           1.000           61.00    
     62      1     39     48      -1000.           0.000           1.000           62.00    

     62 WELLS
 
 SOLVING FOR HEAD 

 OUTPUT CONTROL FOR STRESS PERIOD    1   TIME STEP   1
    PRINT BUDGET
    SAVE HEAD FOR ALL LAYERS
    SAVE BUDGET
 UBDSV2 SAVING "   CONSTANT HEAD" ON UNIT  40 AT TIME STEP  1, STRESS PERIOD   1
 UBDSV1 SAVING "FLOW RIGHT FACE " ON UNIT  40 AT TIME STEP  1, STRESS PERIOD   1
 UBDSV1 SAVING "FLOW FRONT FACE " ON UNIT  40 AT TIME STEP  1, STRESS PERIOD   1
 UBDSV4 SAVING "           WELLS" ON UNIT  40 AT TIME STEP  1, STRESS PERIOD   1
 UBDSV3 SAVING "        RECHARGE" ON UNIT  40 AT TIME STEP  1, STRESS PERIOD   1


 ***Link-MT3DMS Package***
 OPENING LINK-MT3DMS OUTPUT FILE: TutCoast_simple4.hff                                                                                                                                                                                    
 ON UNIT NUMBER:   333
 FILE TYPE: UNFORMATTED
 HEADER OPTION: STANDARD
 ***Link-MT3DMS Package***


 SAVING SATURATED THICKNESS AND FLOW TERMS ON UNIT  333 FOR MT3DMS
 BY THE LINK-MT3DMS PACKAGE V6.3 AT TIME STEP    1, STRESS PERIOD    1


 HEAD WILL BE SAVED ON UNIT    3 AT END OF TIME STEP   1, STRESS PERIOD    1
1
  VOLUMETRIC BUDGET FOR ENTIRE MODEL AT END OF TIME STEP  1 IN STRESS PERIOD   1
  ------------------------------------------------------------------------------

     CUMULATIVE VOLUMES      L**3       RATES FOR THIS TIME STEP      L**3/T
     ------------------                 ------------------------

           IN:                                      IN:
           ---                                      ---
             STORAGE =           0.0000               STORAGE =           0.0000
       CONSTANT HEAD =        1875.2578         CONSTANT HEAD =        1875.2578
               WELLS =           0.0000                 WELLS =           0.0000
            RECHARGE =      433445.8750              RECHARGE =      433445.8750

            TOTAL IN =      435321.1250              TOTAL IN =      435321.1250

          OUT:                                     OUT:
          ----                                     ----
             STORAGE =           0.0000               STORAGE =           0.0000
       CONSTANT HEAD =      373222.7812         CONSTANT HEAD =      373222.7812
               WELLS =       62000.0000                 WELLS =       62000.0000
            RECHARGE =          98.3521              RECHARGE =          98.3521

           TOTAL OUT =      435321.1250             TOTAL OUT =      435321.1250

            IN - OUT =           0.0000              IN - OUT =           0.0000

 PERCENT DISCREPANCY =           0.00     PERCENT DISCREPANCY =           0.00






          TIME SUMMARY AT END OF TIME STEP   1 IN STRESS PERIOD    1
                    SECONDS     MINUTES      HOURS       DAYS        YEARS
                    -----------------------------------------------------------
   TIME STEP LENGTH  86400.      1440.0      24.000      1.0000     2.73785E-03
 STRESS PERIOD TIME  86400.      1440.0      24.000      1.0000     2.73785E-03
         TOTAL TIME  86400.      1440.0      24.000      1.0000     2.73785E-03
1

 DATA AT HEAD LOCATIONS

        OBSERVATION     OBSER-     SIMUL.                          WEIGHTED
   OBS#    NAME         VATION     EQUIV.    RESIDUAL  WEIGHT**.5  RESIDUAL
                          *          *
      1 hed1            4.40       5.95      -1.56       1.96      -3.05    
      2 hed2            2.81       6.30      -3.49       1.96      -6.85    
      3 hed3            2.89       5.17      -2.27       1.96      -4.45    
      4 hed4            1.18       5.06      -3.88       1.96      -7.60    
      5 hed5            1.43       4.60      -3.16       1.96      -6.19    
      6 hed6            1.45       4.26      -2.81       1.96      -5.51    
      7 hed7            1.35       3.94      -2.59       1.96      -5.08    
      8 hed8            1.74       7.21      -5.47       1.96      -10.7    
      9 hed9            1.74       7.01      -5.27       1.96      -10.3    
     10 hed10          0.994       5.50      -4.50       1.96      -8.83    
     11 hed11          0.994       5.42      -4.43       1.96      -8.68    
     12 hed12           1.37       5.88      -4.51       1.96      -8.83    
     13 hed13           1.37       6.07      -4.70       1.96      -9.22    
     14 hed14          0.960       2.91      -1.95       1.96      -3.83    
     15 hed15          0.960       3.42      -2.46       1.96      -4.83    
     16 hed16          0.843       3.12      -2.28       1.96      -4.46    
     17 hed17          0.843       3.45      -2.60       1.96      -5.10    

 * THE OBSERVATION (AND CORRESPONDING SIMULATED EQUIVALENT) IS HEAD OR TEMPORAL
   CHANGE IN HEAD, AS SPECIFIED IN THE "HOB" INPUT FILE.  NEGATIVE TEMPORAL
   CHANGES INDICATE DRAWDOWN.

 STATISTICS FOR HEAD RESIDUALS :
 MAXIMUM WEIGHTED RESIDUAL  : -3.05     OBS#      1
 MINIMUM WEIGHTED RESIDUAL  : -10.7     OBS#      8
 AVERAGE WEIGHTED RESIDUAL  : -6.68    
 # RESIDUALS >= 0. :      0
 # RESIDUALS < 0.  :     17
 NUMBER OF RUNS  :    1  IN   17 OBSERVATIONS

 SUM OF SQUARED WEIGHTED RESIDUALS (HEADS ONLY)   850.02    

 SUM OF SQUARED WEIGHTED RESIDUALS (ALL DEPENDENT VARIABLES)   850.02    

 STATISTICS FOR ALL RESIDUALS :
 AVERAGE WEIGHTED RESIDUAL  :-0.668E+01
 # RESIDUALS >= 0. :      0
 # RESIDUALS < 0.  :     17
 NUMBER OF RUNS  :    1  IN   17 OBSERVATIONS

 COULD NOT CALCULATE THE RUNS STATISTIC

 ORDERED DEPENDENT-VARIABLE WEIGHTED RESIDUALS
 NUMBER OF RESIDUALS INCLUDED:        17
     -10.7      -10.3      -9.22      -8.83      -8.83      -8.68      -7.60    
     -6.85      -6.19      -5.51      -5.10      -5.08      -4.83      -4.46    
     -4.45      -3.83      -3.05    

 CORRELATION BETWEEN ORDERED WEIGHTED RESIDUALS AND NORMAL ORDER STATISTICS
 FOR OBSERVATIONS =    0.947    

 --------------------------------------------------------------------------
 COMMENTS ON THE INTERPRETATION OF THE CORRELATION BETWEEN
 WEIGHTED RESIDUALS AND NORMAL ORDER STATISTICS:

 Generally, IF the reported CORRELATION is LESS than the critical value,
 at the selected significance level (usually 5 or 10%), the hypothesis
 that the weighted residuals are INDEPENDENT AND NORMALLY DISTRIBUTED
 would be REJECTED.  HOWEVER, in this case, conditions are outside of
 the range of published critical values as discussed below.

 The sum of the number of observations and prior information items is    17
 which is less than 35, the minimum value for which critical values are
 published.  Therefore, the critical values for the 5 and 10% significance
 levels are less than 0.943 and 0.952, respectively.

 CORRELATIONS GREATER than these critical values indicate that, probably, the 
 weighted residuals ARE INDEPENDENT AND NORMALLY DISTRIBUTED.

 Correlations LESS than these critical values MAY BE ACCEPTABLE, and
 rejection of the hypothesis is not necessarily warranted.

 The Kolmogorov-Smirnov test can be used to further evaluate the residuals.
 --------------------------------------------------------------------------

